* NGSPICE file created from fir2n.ext - technology: scmos

* Black-box entry subcircuit for FILL abstract view
.subckt FILL gnd vdd
.ends

* Black-box entry subcircuit for NAND3X1 abstract view
.subckt NAND3X1 A B C gnd Y vdd
.ends

* Black-box entry subcircuit for NOR2X1 abstract view
.subckt NOR2X1 A B gnd Y vdd
.ends

* Black-box entry subcircuit for CLKBUF1 abstract view
.subckt CLKBUF1 A gnd Y vdd
.ends

* Black-box entry subcircuit for OAI21X1 abstract view
.subckt OAI21X1 A B C gnd Y vdd
.ends

* Black-box entry subcircuit for BUFX2 abstract view
.subckt BUFX2 A gnd Y vdd
.ends

* Black-box entry subcircuit for NAND2X1 abstract view
.subckt NAND2X1 A B gnd Y vdd
.ends

* Black-box entry subcircuit for AOI21X1 abstract view
.subckt AOI21X1 A B C gnd Y vdd
.ends

* Black-box entry subcircuit for DFFPOSX1 abstract view
.subckt DFFPOSX1 Q CLK D gnd vdd
.ends

* Black-box entry subcircuit for DFFSR abstract view
.subckt DFFSR Q CLK R S D gnd vdd
.ends

* Black-box entry subcircuit for AOI22X1 abstract view
.subckt AOI22X1 A B C D gnd Y vdd
.ends

* Black-box entry subcircuit for OAI22X1 abstract view
.subckt OAI22X1 A B C D gnd Y vdd
.ends

* Black-box entry subcircuit for INVX1 abstract view
.subckt INVX1 A gnd Y vdd
.ends

* Black-box entry subcircuit for AND2X2 abstract view
.subckt AND2X2 A B gnd Y vdd
.ends

* Black-box entry subcircuit for XOR2X1 abstract view
.subckt XOR2X1 A B gnd Y vdd
.ends

* Black-box entry subcircuit for OR2X2 abstract view
.subckt OR2X2 A B gnd Y vdd
.ends

* Black-box entry subcircuit for NOR3X1 abstract view
.subckt NOR3X1 A B C gnd Y vdd
.ends

* Black-box entry subcircuit for XNOR2X1 abstract view
.subckt XNOR2X1 A B gnd Y vdd
.ends

.subckt fir2n clk rst din[0] din[1] din[2] din[3] din[4] din[5] din[6] din[7] dout[0]
+ dout[1] dout[2] dout[3] dout[4] dout[5] dout[6] dout[7]
XFILL_22_DFFSR_143 OR2X2_2/gnd DFFSR_216/S FILL
XFILL_8_CLKBUF1_8 NOR3X1_6/gnd DFFSR_79/S FILL
XFILL_2_DFFSR_25 OR2X2_4/gnd DFFSR_3/S FILL
XFILL_36_DFFSR_247 BUFX2_99/A DFFSR_7/S FILL
XFILL_19_DFFSR_18 NOR3X1_6/gnd DFFSR_91/S FILL
XFILL_12_DFFSR_146 BUFX2_79/A DFFSR_7/S FILL
XFILL_6_BUFX2_53 BUFX2_7/gnd DFFSR_216/S FILL
XFILL_26_DFFSR_250 DFFSR_8/gnd DFFSR_8/S FILL
XFILL_16_DFFSR_253 DFFSR_34/gnd DFFSR_1/S FILL
XFILL_1_NOR2X1_6 BUFX2_98/A DFFSR_6/S FILL
XFILL_6_NAND3X1_172 DFFSR_1/gnd DFFSR_1/S FILL
XFILL_19_CLKBUF1_11 BUFX2_8/gnd DFFSR_51/S FILL
XFILL_43_DFFSR_75 DFFSR_34/gnd DFFSR_1/S FILL
XFILL_8_DFFSR_140 DFFSR_62/gnd DFFSR_208/S FILL
XFILL_40_2_0 BUFX2_98/A DFFSR_6/S FILL
XFILL_49_DFFSR_171 BUFX2_8/gnd DFFSR_81/S FILL
XFILL_18_CLKBUF1_14 DFFSR_34/gnd DFFSR_34/S FILL
XNAND3X1_208 NAND3X1_214/A NAND3X1_214/B OAI21X1_59/Y DFFSR_46/gnd XOR2X1_8/A DFFSR_54/S
+ NAND3X1
XFILL_1_INVX1_117 BUFX2_7/gnd DFFSR_151/S FILL
XFILL_39_DFFSR_174 BUFX2_8/gnd DFFSR_51/S FILL
XFILL_17_CLKBUF1_17 BUFX2_8/gnd DFFSR_81/S FILL
XFILL_27_DFFSR_25 OR2X2_4/gnd DFFSR_3/S FILL
XFILL_16_DFFSR_65 BUFX2_79/A DFFSR_7/S FILL
XFILL_38_4_1 BUFX2_79/A DFFSR_7/S FILL
XFILL_7_NAND3X1_106 INVX1_3/gnd DFFSR_23/S FILL
XFILL_2_DFFSR_250 DFFSR_8/gnd DFFSR_8/S FILL
XFILL_16_CLKBUF1_20 BUFX2_8/gnd DFFSR_51/S FILL
XFILL_29_DFFSR_177 DFFSR_46/gnd DFFSR_54/S FILL
XFILL_11_DFFPOSX1_10 INVX1_67/gnd DFFSR_201/S FILL
XFILL_15_CLKBUF1_23 DFFSR_4/gnd DFFSR_98/S FILL
XFILL_19_DFFSR_180 DFFSR_34/gnd DFFSR_34/S FILL
XNOR2X1_62 BUFX2_7/Y BUFX2_36/Y INVX1_67/gnd NOR2X1_62/Y DFFSR_201/S NOR2X1
XFILL_36_6_2 BUFX2_99/A DFFSR_92/S FILL
XFILL_14_CLKBUF1_26 INVX1_1/gnd DFFSR_53/S FILL
XFILL_3_XOR2X1_2 OR2X2_2/gnd DFFSR_175/S FILL
XFILL_23_DFFSR_4 DFFSR_4/gnd DFFSR_4/S FILL
XFILL_13_CLKBUF1_29 XOR2X1_4/gnd DFFSR_91/S FILL
XFILL_4_NOR2X1_59 DFFSR_34/gnd DFFSR_1/S FILL
XFILL_6_OAI21X1_7 DFFSR_8/gnd DFFSR_8/S FILL
XFILL_12_CLKBUF1_32 DFFSR_1/gnd DFFSR_81/S FILL
XFILL_42_DFFSR_101 OR2X2_3/gnd DFFSR_4/S FILL
XFILL_35_DFFSR_32 OR2X2_4/gnd DFFSR_32/S FILL
XFILL_7_DFFSR_79 NOR3X1_6/gnd DFFSR_79/S FILL
XFILL_24_DFFSR_72 OR2X2_3/gnd DFFSR_60/S FILL
XFILL_11_CLKBUF1_35 DFFSR_5/gnd DFFSR_5/S FILL
XFILL_5_DFFSR_177 DFFSR_46/gnd DFFSR_54/S FILL
XFILL_32_DFFSR_104 DFFSR_28/gnd DFFSR_8/S FILL
XFILL_10_CLKBUF1_38 OR2X2_3/gnd DFFSR_60/S FILL
XFILL_5_NAND3X1_202 OR2X2_6/gnd DFFSR_53/S FILL
XFILL_46_DFFSR_208 DFFSR_62/gnd DFFSR_208/S FILL
XFILL_22_DFFSR_107 OR2X2_6/gnd DFFSR_92/S FILL
XFILL_36_DFFSR_211 BUFX2_7/gnd DFFSR_216/S FILL
XFILL_1_DFFPOSX1_21 DFFSR_28/gnd DFFSR_8/S FILL
XFILL_1_AND2X2_21 DFFSR_34/gnd DFFSR_34/S FILL
XFILL_12_DFFSR_110 OR2X2_3/gnd DFFSR_4/S FILL
XFILL_6_BUFX2_17 DFFSR_8/gnd DFFSR_8/S FILL
XFILL_26_DFFSR_214 BUFX2_72/gnd DFFSR_276/S FILL
XFILL_9_CLKBUF1_41 OR2X2_4/gnd DFFSR_3/S FILL
XFILL_16_DFFSR_217 BUFX2_72/gnd DFFSR_201/S FILL
XFILL_8_CLKBUF1_44 DFFSR_1/gnd DFFSR_81/S FILL
XFILL_6_NAND3X1_136 DFFSR_1/gnd DFFSR_81/S FILL
XFILL_7_CLKBUF1_47 BUFX2_98/A DFFSR_32/S FILL
XFILL_10_DFFPOSX1_40 OR2X2_1/gnd DFFSR_59/S FILL
XFILL_8_DFFSR_104 DFFSR_28/gnd DFFSR_8/S FILL
XFILL_32_DFFSR_79 NOR3X1_6/gnd DFFSR_79/S FILL
XFILL_43_DFFSR_39 INVX1_3/gnd DFFSR_79/S FILL
XFILL_4_INVX1_73 DFFSR_1/gnd DFFSR_1/S FILL
XFILL_49_DFFSR_135 DFFSR_62/gnd DFFSR_208/S FILL
XNAND3X1_172 INVX1_158/A OAI21X1_48/Y OAI21X1_49/Y DFFSR_1/gnd AOI22X1_23/B DFFSR_1/S
+ NAND3X1
XFILL_39_DFFSR_138 BUFX2_8/gnd DFFSR_81/S FILL
XFILL_16_DFFSR_29 BUFX2_77/gnd DFFSR_5/S FILL
XFILL_2_DFFSR_214 BUFX2_72/gnd DFFSR_276/S FILL
XFILL_3_BUFX2_64 DFFSR_62/gnd DFFSR_62/S FILL
XFILL_29_DFFSR_141 XOR2X1_4/gnd DFFSR_91/S FILL
XFILL_46_1_2 DFFSR_8/gnd DFFSR_8/S FILL
XFILL_43_DFFSR_245 DFFSR_34/gnd DFFSR_34/S FILL
XFILL_20_DFFPOSX1_29 BUFX2_72/gnd DFFSR_276/S FILL
XFILL_5_CLKBUF1_9 OR2X2_4/gnd DFFSR_3/S FILL
XFILL_19_DFFSR_144 DFFSR_46/gnd DFFSR_62/S FILL
XFILL_33_DFFSR_248 DFFSR_28/gnd DFFSR_8/S FILL
XNOR2X1_26 NOR2X1_26/A NOR2X1_26/B DFFSR_8/gnd NOR2X1_26/Y DFFSR_60/S NOR2X1
XFILL_23_DFFSR_251 BUFX2_7/gnd DFFSR_151/S FILL
XFILL_4_NAND3X1_232 DFFSR_4/gnd DFFSR_98/S FILL
XFILL_40_DFFSR_86 DFFSR_4/gnd DFFSR_4/S FILL
XFILL_4_NOR2X1_23 OR2X2_4/gnd DFFSR_3/S FILL
XFILL_13_DFFSR_254 DFFSR_34/gnd DFFSR_1/S FILL
XFILL_7_DFFSR_43 BUFX2_98/A DFFSR_6/S FILL
XFILL_24_DFFSR_36 BUFX2_77/gnd DFFSR_98/S FILL
XFILL_13_DFFSR_76 BUFX2_79/A DFFSR_7/S FILL
XFILL_5_DFFSR_141 XOR2X1_4/gnd DFFSR_91/S FILL
XFILL_5_NAND3X1_166 DFFSR_34/gnd DFFSR_34/S FILL
XFILL_14_0_0 INVX1_39/gnd DFFSR_54/S FILL
XFILL_46_DFFSR_172 DFFSR_46/gnd DFFSR_62/S FILL
XFILL_9_DFFSR_248 DFFSR_28/gnd DFFSR_8/S FILL
XFILL_36_DFFSR_175 OR2X2_2/gnd DFFSR_175/S FILL
XFILL_50_DFFSR_279 BUFX2_99/A DFFSR_7/S FILL
XFILL_26_DFFSR_178 NOR3X1_6/gnd DFFSR_79/S FILL
XFILL_12_2_1 DFFSR_46/gnd DFFSR_62/S FILL
XFILL_48_DFFSR_93 OR2X2_3/gnd DFFSR_60/S FILL
XFILL_16_DFFSR_181 INVX1_3/gnd DFFSR_79/S FILL
XFILL_6_NAND3X1_100 AND2X2_38/B DFFSR_59/S FILL
XFILL_7_CLKBUF1_11 BUFX2_8/gnd DFFSR_51/S FILL
XFILL_9_AND2X2_2 BUFX2_99/A DFFSR_7/S FILL
XFILL_10_4_2 DFFSR_62/gnd DFFSR_208/S FILL
XFILL_4_DFFSR_90 BUFX2_77/gnd DFFSR_5/S FILL
XFILL_4_INVX1_37 BUFX2_77/gnd DFFSR_98/S FILL
XFILL_32_DFFSR_43 BUFX2_98/A DFFSR_6/S FILL
XFILL_21_DFFSR_83 INVX1_3/gnd DFFSR_79/S FILL
XFILL_1_NOR2X1_60 DFFSR_34/gnd DFFSR_34/S FILL
XFILL_6_CLKBUF1_14 DFFSR_34/gnd DFFSR_34/S FILL
XFILL_3_OAI21X1_8 BUFX2_99/A DFFSR_7/S FILL
XFILL_5_CLKBUF1_17 BUFX2_8/gnd DFFSR_81/S FILL
XNAND3X1_136 NOR3X1_1/A INVX1_130/Y AND2X2_28/Y DFFSR_1/gnd AOI21X1_6/A DFFSR_81/S
+ NAND3X1
XFILL_39_DFFSR_102 DFFSR_4/gnd DFFSR_98/S FILL
XCLKBUF1_14 BUFX2_5/Y DFFSR_34/gnd CLKBUF1_14/Y DFFSR_34/S CLKBUF1
XFILL_5_4 OR2X2_2/gnd DFFSR_175/S FILL
XFILL_4_CLKBUF1_20 BUFX2_8/gnd DFFSR_51/S FILL
XFILL_2_DFFSR_178 NOR3X1_6/gnd DFFSR_79/S FILL
XFILL_3_BUFX2_28 DFFSR_46/gnd DFFSR_62/S FILL
XFILL_29_DFFSR_105 INVX1_1/gnd DFFSR_53/S FILL
XFILL_43_DFFSR_209 BUFX2_72/gnd DFFSR_276/S FILL
XFILL_3_CLKBUF1_23 DFFSR_4/gnd DFFSR_98/S FILL
XFILL_8_AND2X2_19 BUFX2_7/gnd DFFSR_216/S FILL
XFILL_19_DFFSR_108 OR2X2_6/gnd DFFSR_92/S FILL
XFILL_6_OAI21X1_118 OR2X2_6/gnd DFFSR_53/S FILL
XFILL_33_DFFSR_212 OR2X2_2/gnd DFFSR_175/S FILL
XFILL_2_CLKBUF1_26 INVX1_1/gnd DFFSR_53/S FILL
XFILL_23_DFFSR_215 DFFSR_34/gnd DFFSR_1/S FILL
XFILL_1_CLKBUF1_29 XOR2X1_4/gnd DFFSR_91/S FILL
XFILL_4_NAND3X1_196 DFFSR_46/gnd DFFSR_62/S FILL
XFILL_40_DFFSR_50 BUFX2_77/gnd DFFSR_5/S FILL
XFILL_1_INVX1_84 INVX1_39/gnd DFFSR_34/S FILL
XFILL_29_DFFSR_90 BUFX2_77/gnd DFFSR_5/S FILL
XFILL_0_DFFPOSX1_15 BUFX2_72/gnd DFFSR_201/S FILL
XFILL_13_DFFSR_218 BUFX2_98/A DFFSR_32/S FILL
XFILL_0_CLKBUF1_32 DFFSR_1/gnd DFFSR_81/S FILL
XFILL_13_DFFSR_40 OR2X2_4/gnd DFFSR_3/S FILL
XFILL_5_DFFSR_105 INVX1_1/gnd DFFSR_53/S FILL
XFILL_0_BUFX2_75 BUFX2_72/gnd DFFSR_276/S FILL
XFILL_46_DFFSR_136 NOR3X1_6/gnd DFFSR_79/S FILL
XFILL_5_NAND3X1_130 DFFSR_34/gnd DFFSR_34/S FILL
XFILL_9_DFFSR_212 OR2X2_2/gnd DFFSR_175/S FILL
XFILL_36_DFFSR_139 DFFSR_34/gnd DFFSR_34/S FILL
XFILL_50_DFFSR_243 BUFX2_7/gnd DFFSR_151/S FILL
XFILL_26_DFFSR_142 XOR2X1_1/gnd DFFSR_151/S FILL
XFILL_35_DFFSR_7 BUFX2_79/A DFFSR_7/S FILL
XFILL_2_INVX1_189 XOR2X1_4/gnd DFFSR_91/S FILL
XFILL_40_DFFSR_246 XOR2X1_1/gnd DFFSR_208/S FILL
XFILL_48_DFFSR_57 BUFX2_79/A DFFSR_6/S FILL
XFILL_37_DFFSR_97 INVX1_1/gnd DFFSR_97/S FILL
XFILL_16_DFFSR_145 BUFX2_72/gnd DFFSR_201/S FILL
XFILL_30_DFFSR_249 BUFX2_72/gnd DFFSR_276/S FILL
XFILL_20_DFFSR_252 AND2X2_38/B DFFSR_23/S FILL
XFILL_21_DFFSR_47 BUFX2_77/gnd DFFSR_98/S FILL
XFILL_19_DFFPOSX1_23 NOR3X1_6/gnd DFFSR_91/S FILL
XFILL_4_DFFSR_54 INVX1_39/gnd DFFSR_54/S FILL
XFILL_1_NOR2X1_24 DFFSR_4/gnd DFFSR_4/S FILL
XFILL_10_DFFSR_87 BUFX2_77/gnd DFFSR_5/S FILL
XFILL_10_DFFSR_255 OR2X2_4/gnd DFFSR_32/S FILL
XFILL_0_0_2 BUFX2_72/gnd DFFSR_276/S FILL
XNAND3X1_100 NAND2X1_46/Y NAND3X1_97/Y AND2X2_23/Y AND2X2_38/B NOR2X1_49/A DFFSR_59/S
+ NAND3X1
XFILL_3_NAND3X1_226 OR2X2_3/gnd DFFSR_60/S FILL
XFILL_2_DFFSR_142 XOR2X1_1/gnd DFFSR_151/S FILL
XFILL_43_DFFSR_173 XOR2X1_1/gnd DFFSR_208/S FILL
XFILL_6_DFFSR_249 BUFX2_72/gnd DFFSR_276/S FILL
XFILL_33_DFFSR_176 OR2X2_6/gnd DFFSR_53/S FILL
XFILL_47_DFFSR_280 OR2X2_6/gnd DFFSR_53/S FILL
XFILL_23_DFFSR_179 OR2X2_1/gnd DFFSR_51/S FILL
XFILL_4_NAND3X1_160 OR2X2_1/gnd DFFSR_51/S FILL
XFILL_1_INVX1_48 DFFSR_4/gnd DFFSR_98/S FILL
XFILL_40_DFFSR_14 INVX1_1/gnd DFFSR_53/S FILL
XFILL_18_DFFSR_94 BUFX2_77/gnd DFFSR_98/S FILL
XFILL_29_DFFSR_54 INVX1_39/gnd DFFSR_54/S FILL
XFILL_13_DFFSR_182 XOR2X1_1/gnd DFFSR_208/S FILL
XFILL_47_2_0 DFFSR_8/gnd DFFSR_60/S FILL
XOAI21X1_118 XOR2X1_15/Y OR2X2_6/Y INVX1_212/Y OR2X2_6/gnd AOI21X1_70/C DFFSR_53/S
+ OAI21X1
XFILL_9_DFFPOSX1_34 OR2X2_2/gnd DFFSR_216/S FILL
XFILL_0_BUFX2_39 BUFX2_7/gnd DFFSR_151/S FILL
XFILL_45_4_1 DFFSR_28/gnd DFFSR_8/S FILL
XFILL_0_OAI21X1_9 INVX1_67/gnd DFFSR_201/S FILL
XFILL_46_DFFSR_100 INVX1_1/gnd DFFSR_97/S FILL
XFILL_9_DFFSR_176 OR2X2_6/gnd DFFSR_53/S FILL
XFILL_36_DFFSR_103 DFFSR_8/gnd DFFSR_60/S FILL
XFILL_50_DFFSR_207 DFFSR_62/gnd DFFSR_62/S FILL
XFILL_43_6_2 OR2X2_4/gnd DFFSR_3/S FILL
XFILL_26_DFFSR_106 XOR2X1_4/gnd DFFSR_91/S FILL
XFILL_2_INVX1_153 INVX1_67/gnd DFFSR_175/S FILL
XFILL_40_DFFSR_210 BUFX2_98/A DFFSR_6/S FILL
XFILL_37_DFFSR_61 DFFSR_28/gnd DFFSR_8/S FILL
XFILL_48_DFFSR_21 DFFSR_5/gnd DFFSR_5/S FILL
XFILL_5_AND2X2_20 OR2X2_6/gnd DFFSR_53/S FILL
XFILL_16_DFFSR_109 DFFSR_4/gnd DFFSR_4/S FILL
XFILL_30_DFFSR_213 INVX1_3/gnd DFFSR_23/S FILL
XFILL_20_DFFSR_216 BUFX2_7/gnd DFFSR_216/S FILL
XFILL_4_DFFSR_18 NOR3X1_6/gnd DFFSR_91/S FILL
XFILL_21_DFFSR_11 DFFSR_1/gnd DFFSR_1/S FILL
XFILL_10_DFFSR_51 BUFX2_8/gnd DFFSR_51/S FILL
XFILL_5_OAI21X1_112 BUFX2_8/gnd DFFSR_81/S FILL
XFILL_10_DFFSR_219 INVX1_67/gnd DFFSR_175/S FILL
XFILL_3_NAND3X1_190 BUFX2_7/gnd DFFSR_151/S FILL
XFILL_2_DFFSR_106 XOR2X1_4/gnd DFFSR_91/S FILL
XFILL_11_5_0 DFFSR_62/gnd DFFSR_62/S FILL
XFILL_43_DFFSR_137 BUFX2_7/gnd DFFSR_216/S FILL
XFILL_22_DFFSR_1 DFFSR_1/gnd DFFSR_1/S FILL
XFILL_45_DFFSR_68 BUFX2_98/A DFFSR_6/S FILL
XFILL_6_DFFSR_213 INVX1_3/gnd DFFSR_23/S FILL
XFILL_33_DFFSR_140 DFFSR_62/gnd DFFSR_208/S FILL
XFILL_47_DFFSR_244 DFFSR_1/gnd DFFSR_81/S FILL
XFILL_23_DFFSR_143 OR2X2_2/gnd DFFSR_216/S FILL
XFILL_9_CLKBUF1_8 NOR3X1_6/gnd DFFSR_79/S FILL
XFILL_4_NAND3X1_124 XOR2X1_4/gnd DFFSR_97/S FILL
XFILL_1_INVX1_12 BUFX2_77/gnd DFFSR_5/S FILL
XFILL_1_DFFSR_65 BUFX2_79/A DFFSR_7/S FILL
XFILL_37_DFFSR_247 BUFX2_99/A DFFSR_7/S FILL
XFILL_18_DFFSR_58 DFFSR_28/gnd DFFSR_3/S FILL
XFILL_29_DFFSR_18 NOR3X1_6/gnd DFFSR_91/S FILL
XFILL_13_DFFSR_146 BUFX2_79/A DFFSR_7/S FILL
XFILL_5_BUFX2_93 AND2X2_38/B DFFSR_59/S FILL
XFILL_27_DFFSR_250 DFFSR_8/gnd DFFSR_8/S FILL
XFILL_6_BUFX2_2 OR2X2_4/gnd DFFSR_32/S FILL
XFILL_6_NAND2X1_160 NOR3X1_6/gnd DFFSR_79/S FILL
XFILL_49_5 OR2X2_3/gnd DFFSR_60/S FILL
XFILL_17_DFFSR_253 DFFSR_34/gnd DFFSR_1/S FILL
XFILL_53_1_2 BUFX2_77/gnd DFFSR_5/S FILL
XFILL_9_DFFSR_140 DFFSR_62/gnd DFFSR_208/S FILL
XFILL_18_DFFPOSX1_17 BUFX2_8/gnd DFFSR_51/S FILL
XFILL_50_DFFSR_171 BUFX2_8/gnd DFFSR_81/S FILL
XFILL_2_INVX1_117 BUFX2_7/gnd DFFSR_151/S FILL
XFILL_40_DFFSR_174 BUFX2_8/gnd DFFSR_51/S FILL
XFILL_9_DFFSR_72 OR2X2_3/gnd DFFSR_60/S FILL
XFILL_37_DFFSR_25 OR2X2_4/gnd DFFSR_3/S FILL
XFILL_26_DFFSR_65 BUFX2_79/A DFFSR_7/S FILL
XFILL_2_NAND3X1_220 DFFSR_46/gnd DFFSR_54/S FILL
XFILL_3_DFFSR_250 DFFSR_8/gnd DFFSR_8/S FILL
XFILL_18_DFFPOSX1_2 DFFSR_1/gnd DFFSR_1/S FILL
XFILL_30_DFFSR_177 DFFSR_46/gnd DFFSR_54/S FILL
XFILL_17_DFFPOSX1_5 OR2X2_2/gnd DFFSR_216/S FILL
XFILL_20_DFFSR_180 DFFSR_34/gnd DFFSR_34/S FILL
XFILL_10_DFFSR_15 OR2X2_3/gnd DFFSR_4/S FILL
XFILL_16_DFFPOSX1_8 OR2X2_4/gnd DFFSR_32/S FILL
XFILL_10_DFFSR_183 INVX1_67/gnd DFFSR_175/S FILL
XFILL_3_NAND3X1_154 BUFX2_7/gnd DFFSR_216/S FILL
XFILL_21_0_0 BUFX2_8/gnd DFFSR_51/S FILL
XFILL_5_NOR2X1_59 DFFSR_34/gnd DFFSR_1/S FILL
XFILL_7_OAI21X1_7 DFFSR_8/gnd DFFSR_8/S FILL
XFILL_8_DFFPOSX1_28 BUFX2_72/gnd DFFSR_201/S FILL
XFILL_43_DFFSR_101 OR2X2_3/gnd DFFSR_4/S FILL
XFILL_45_DFFSR_32 OR2X2_4/gnd DFFSR_32/S FILL
XFILL_34_DFFSR_72 OR2X2_3/gnd DFFSR_60/S FILL
XFILL_19_2_1 DFFSR_1/gnd DFFSR_81/S FILL
XFILL_6_DFFSR_177 DFFSR_46/gnd DFFSR_54/S FILL
XFILL_33_DFFSR_104 DFFSR_28/gnd DFFSR_8/S FILL
XFILL_47_DFFSR_208 DFFSR_62/gnd DFFSR_208/S FILL
XFILL_1_1_0 BUFX2_72/gnd DFFSR_201/S FILL
XFILL_23_DFFSR_107 OR2X2_6/gnd DFFSR_92/S FILL
XFILL_37_DFFSR_211 BUFX2_7/gnd DFFSR_216/S FILL
XFILL_1_DFFSR_29 BUFX2_77/gnd DFFSR_5/S FILL
XFILL_18_DFFSR_22 OR2X2_4/gnd DFFSR_32/S FILL
XFILL_17_4_2 DFFSR_34/gnd DFFSR_1/S FILL
XBUFX2_97 BUFX2_97/A OR2X2_3/gnd BUFX2_97/Y DFFSR_60/S BUFX2
XFILL_2_AND2X2_21 DFFSR_34/gnd DFFSR_34/S FILL
XFILL_13_DFFSR_110 OR2X2_3/gnd DFFSR_4/S FILL
XFILL_5_BUFX2_57 AND2X2_38/B DFFSR_23/S FILL
XFILL_27_DFFSR_214 BUFX2_72/gnd DFFSR_276/S FILL
XFILL_17_DFFPOSX1_47 XOR2X1_4/gnd DFFSR_91/S FILL
XFILL_10_OAI22X1_3 OR2X2_4/gnd DFFSR_3/S FILL
XFILL_6_NAND2X1_124 OR2X2_2/gnd DFFSR_216/S FILL
XFILL_17_DFFSR_217 BUFX2_72/gnd DFFSR_201/S FILL
XFILL_9_NOR3X1_3 BUFX2_7/gnd DFFSR_216/S FILL
XFILL_9_DFFSR_104 DFFSR_28/gnd DFFSR_8/S FILL
XFILL_42_DFFSR_79 NOR3X1_6/gnd DFFSR_79/S FILL
XNAND2X1_160 NAND2X1_160/A INVX1_208/Y NOR3X1_6/gnd AOI21X1_56/A DFFSR_79/S NAND2X1
XFILL_50_DFFSR_135 DFFSR_62/gnd DFFSR_208/S FILL
XFILL_4_OAI21X1_106 XOR2X1_1/gnd DFFSR_208/S FILL
XFILL_27_DFFPOSX1_36 OR2X2_2/gnd DFFSR_175/S FILL
XFILL_8_AOI21X1_52 OR2X2_6/gnd DFFSR_53/S FILL
XFILL_40_DFFSR_138 BUFX2_8/gnd DFFSR_81/S FILL
XFILL_26_DFFSR_29 BUFX2_77/gnd DFFSR_5/S FILL
XFILL_9_DFFSR_36 BUFX2_77/gnd DFFSR_98/S FILL
XFILL_7_AOI21X1_55 XOR2X1_4/gnd DFFSR_97/S FILL
XFILL_15_DFFSR_69 BUFX2_98/A DFFSR_32/S FILL
XFILL_2_NAND3X1_184 BUFX2_8/gnd DFFSR_51/S FILL
XFILL_3_DFFSR_214 BUFX2_72/gnd DFFSR_276/S FILL
XFILL_30_DFFSR_141 XOR2X1_4/gnd DFFSR_91/S FILL
XFILL_6_AOI21X1_58 OR2X2_2/gnd DFFSR_175/S FILL
XFILL_44_DFFSR_245 DFFSR_34/gnd DFFSR_34/S FILL
XFILL_6_CLKBUF1_9 OR2X2_4/gnd DFFSR_3/S FILL
XFILL_20_DFFSR_144 DFFSR_46/gnd DFFSR_62/S FILL
XFILL_34_DFFSR_248 DFFSR_28/gnd DFFSR_8/S FILL
XFILL_5_AOI21X1_61 AND2X2_38/B DFFSR_59/S FILL
XAOI21X1_58 AOI21X1_58/A AOI21X1_58/B BUFX2_36/Y OR2X2_2/gnd AOI21X1_58/Y DFFSR_175/S
+ AOI21X1
XFILL_10_DFFSR_147 DFFSR_1/gnd DFFSR_1/S FILL
XFILL_2_XOR2X1_6 BUFX2_99/A DFFSR_7/S FILL
XFILL_4_AOI21X1_64 AND2X2_38/B DFFSR_59/S FILL
XFILL_24_DFFSR_251 BUFX2_7/gnd DFFSR_151/S FILL
XFILL_5_NOR2X1_23 OR2X2_4/gnd DFFSR_3/S FILL
XFILL_13_DFFSR_8 DFFSR_8/gnd DFFSR_8/S FILL
XFILL_50_DFFSR_86 DFFSR_4/gnd DFFSR_4/S FILL
XFILL_3_NAND3X1_118 DFFSR_62/gnd DFFSR_62/S FILL
XFILL_3_AOI21X1_67 NOR3X1_6/gnd DFFSR_91/S FILL
XFILL_14_DFFSR_254 DFFSR_34/gnd DFFSR_1/S FILL
XFILL_2_AOI21X1_70 OR2X2_6/gnd DFFSR_92/S FILL
XFILL_5_NAND2X1_154 OR2X2_4/gnd DFFSR_3/S FILL
XFILL_6_DFFSR_83 INVX1_3/gnd DFFSR_79/S FILL
XFILL_34_DFFSR_36 BUFX2_77/gnd DFFSR_98/S FILL
XFILL_23_DFFSR_76 BUFX2_79/A DFFSR_7/S FILL
XFILL_6_DFFSR_141 XOR2X1_4/gnd DFFSR_91/S FILL
XFILL_47_DFFSR_172 DFFSR_46/gnd DFFSR_62/S FILL
XFILL_37_DFFSR_175 OR2X2_2/gnd DFFSR_175/S FILL
XBUFX2_61 BUFX2_60/A AND2X2_38/B BUFX2_61/Y DFFSR_59/S BUFX2
XFILL_0_DFFSR_251 BUFX2_7/gnd DFFSR_151/S FILL
XFILL_5_BUFX2_21 OR2X2_4/gnd DFFSR_32/S FILL
XFILL_17_DFFPOSX1_11 DFFSR_4/gnd DFFSR_4/S FILL
XFILL_27_DFFSR_178 NOR3X1_6/gnd DFFSR_79/S FILL
XFILL_9_OAI21X1_97 BUFX2_72/gnd DFFSR_276/S FILL
XFILL_7_0_2 BUFX2_7/gnd DFFSR_151/S FILL
XFILL_17_DFFSR_181 INVX1_3/gnd DFFSR_79/S FILL
XFILL_34_DFFSR_4 DFFSR_4/gnd DFFSR_4/S FILL
XFILL_1_NAND3X1_214 DFFSR_46/gnd DFFSR_62/S FILL
XFILL_42_DFFSR_43 BUFX2_98/A DFFSR_6/S FILL
XFILL_31_DFFSR_83 INVX1_3/gnd DFFSR_79/S FILL
XFILL_3_INVX1_77 DFFSR_1/gnd DFFSR_81/S FILL
XNAND2X1_124 NAND2X1_59/A BUFX2_54/Y OR2X2_2/gnd OAI21X1_93/C DFFSR_216/S NAND2X1
XFILL_2_NOR2X1_60 DFFSR_34/gnd DFFSR_34/S FILL
XFILL_4_OAI21X1_8 BUFX2_99/A DFFSR_7/S FILL
XFILL_8_AOI21X1_16 INVX1_67/gnd DFFSR_175/S FILL
XFILL_40_DFFSR_102 DFFSR_4/gnd DFFSR_98/S FILL
XFILL_9_1 XOR2X1_1/gnd DFFSR_151/S FILL
XFILL_6_DFFPOSX1_2 DFFSR_1/gnd DFFSR_1/S FILL
XFILL_7_AOI21X1_19 DFFSR_62/gnd DFFSR_208/S FILL
XFILL_15_DFFSR_33 BUFX2_98/A DFFSR_32/S FILL
XFILL_2_NAND3X1_148 BUFX2_8/gnd DFFSR_81/S FILL
XFILL_3_DFFSR_178 NOR3X1_6/gnd DFFSR_79/S FILL
XFILL_30_DFFSR_105 INVX1_1/gnd DFFSR_53/S FILL
XFILL_2_BUFX2_68 XOR2X1_1/gnd DFFSR_208/S FILL
XFILL_5_DFFPOSX1_5 OR2X2_2/gnd DFFSR_216/S FILL
XFILL_6_AOI21X1_22 DFFSR_62/gnd DFFSR_62/S FILL
XFILL_44_DFFSR_209 BUFX2_72/gnd DFFSR_276/S FILL
XFILL_9_AND2X2_19 BUFX2_7/gnd DFFSR_216/S FILL
XFILL_54_2_0 DFFSR_5/gnd DFFSR_5/S FILL
XFILL_20_DFFSR_108 OR2X2_6/gnd DFFSR_92/S FILL
XDFFPOSX1_2 AOI21X1_1/A CLKBUF1_49/Y NOR2X1_59/Y DFFSR_1/gnd DFFSR_1/S DFFPOSX1
XFILL_4_DFFPOSX1_8 OR2X2_4/gnd DFFSR_32/S FILL
XFILL_7_DFFPOSX1_22 DFFSR_1/gnd DFFSR_81/S FILL
XFILL_34_DFFSR_212 OR2X2_2/gnd DFFSR_175/S FILL
XFILL_5_AOI21X1_25 DFFSR_62/gnd DFFSR_208/S FILL
XAOI21X1_22 AOI21X1_22/A AOI21X1_22/B AOI21X1_22/C DFFSR_62/gnd OAI21X1_54/A DFFSR_62/S
+ AOI21X1
XFILL_10_DFFSR_111 DFFSR_8/gnd DFFSR_8/S FILL
XFILL_4_AOI21X1_28 AND2X2_38/B DFFSR_23/S FILL
XFILL_24_DFFSR_215 DFFSR_34/gnd DFFSR_1/S FILL
XFILL_52_4_1 BUFX2_77/gnd DFFSR_98/S FILL
XFILL_50_DFFSR_50 BUFX2_77/gnd DFFSR_5/S FILL
XFILL_39_DFFSR_90 BUFX2_77/gnd DFFSR_5/S FILL
XFILL_3_AOI21X1_31 INVX1_39/gnd DFFSR_34/S FILL
XFILL_14_DFFSR_218 BUFX2_98/A DFFSR_32/S FILL
XFILL_2_AOI21X1_34 INVX1_39/gnd DFFSR_34/S FILL
XFILL_16_DFFPOSX1_41 DFFSR_8/gnd DFFSR_60/S FILL
XFILL_50_6_2 DFFSR_4/gnd DFFSR_4/S FILL
XFILL_6_DFFSR_47 BUFX2_77/gnd DFFSR_98/S FILL
XFILL_5_NAND2X1_118 NOR3X1_6/gnd DFFSR_79/S FILL
XFILL_23_DFFSR_40 OR2X2_4/gnd DFFSR_3/S FILL
XFILL_12_DFFSR_80 DFFSR_4/gnd DFFSR_4/S FILL
XFILL_6_DFFSR_105 INVX1_1/gnd DFFSR_53/S FILL
XFILL_1_AOI21X1_37 OR2X2_3/gnd DFFSR_4/S FILL
XFILL_0_NAND3X1_244 DFFSR_28/gnd DFFSR_8/S FILL
XFILL_47_DFFSR_136 NOR3X1_6/gnd DFFSR_79/S FILL
XFILL_0_AOI21X1_40 INVX1_39/gnd DFFSR_54/S FILL
XFILL_37_DFFSR_139 DFFSR_34/gnd DFFSR_34/S FILL
XBUFX2_25 BUFX2_23/A BUFX2_8/gnd BUFX2_25/Y DFFSR_81/S BUFX2
XFILL_0_DFFSR_215 DFFSR_34/gnd DFFSR_1/S FILL
XFILL_27_DFFSR_142 XOR2X1_1/gnd DFFSR_151/S FILL
XFILL_3_OAI21X1_100 INVX1_3/gnd DFFSR_79/S FILL
XFILL_26_DFFPOSX1_30 BUFX2_77/gnd DFFSR_98/S FILL
XFILL_31_2 XOR2X1_4/gnd DFFSR_91/S FILL
XFILL_41_DFFSR_246 XOR2X1_1/gnd DFFSR_208/S FILL
XFILL_47_DFFSR_97 INVX1_1/gnd DFFSR_97/S FILL
XFILL_3_INVX1_189 XOR2X1_4/gnd DFFSR_91/S FILL
XFILL_17_DFFSR_145 BUFX2_72/gnd DFFSR_201/S FILL
XFILL_8_OAI21X1_64 INVX1_1/gnd DFFSR_53/S FILL
XFILL_31_DFFSR_249 BUFX2_72/gnd DFFSR_276/S FILL
XFILL_1_NAND3X1_178 NOR3X1_6/gnd DFFSR_91/S FILL
XFILL_8_AND2X2_6 BUFX2_99/A DFFSR_7/S FILL
XFILL_7_OAI21X1_67 INVX1_1/gnd DFFSR_97/S FILL
XFILL_6_NAND2X1_85 NOR3X1_6/gnd DFFSR_91/S FILL
XFILL_21_DFFSR_252 AND2X2_38/B DFFSR_23/S FILL
XFILL_3_INVX1_41 DFFSR_4/gnd DFFSR_98/S FILL
XFILL_31_DFFSR_47 BUFX2_77/gnd DFFSR_98/S FILL
XFILL_3_DFFSR_94 BUFX2_77/gnd DFFSR_98/S FILL
XFILL_18_5_0 DFFSR_1/gnd DFFSR_1/S FILL
XFILL_2_NOR2X1_24 DFFSR_4/gnd DFFSR_4/S FILL
XFILL_20_DFFSR_87 BUFX2_77/gnd DFFSR_5/S FILL
XFILL_5_NAND2X1_88 DFFSR_34/gnd DFFSR_1/S FILL
XFILL_11_DFFSR_255 OR2X2_4/gnd DFFSR_32/S FILL
XFILL_6_OAI21X1_70 INVX1_3/gnd DFFSR_23/S FILL
XNAND2X1_85 AND2X2_33/Y AND2X2_37/Y NOR3X1_6/gnd NAND2X1_85/Y DFFSR_91/S NAND2X1
XFILL_4_NAND2X1_91 INVX1_39/gnd DFFSR_54/S FILL
XFILL_5_OAI21X1_73 DFFSR_46/gnd DFFSR_54/S FILL
XOAI21X1_70 OR2X2_3/A OAI21X1_72/B AOI21X1_31/Y INVX1_3/gnd OAI21X1_70/Y DFFSR_23/S
+ OAI21X1
XFILL_2_NAND3X1_112 DFFSR_1/gnd DFFSR_1/S FILL
XFILL_3_DFFSR_142 XOR2X1_1/gnd DFFSR_151/S FILL
XFILL_3_NAND2X1_94 OR2X2_6/gnd DFFSR_92/S FILL
XFILL_4_OAI21X1_76 INVX1_1/gnd DFFSR_53/S FILL
XFILL_2_BUFX2_32 BUFX2_8/gnd DFFSR_51/S FILL
XFILL_44_DFFSR_173 XOR2X1_1/gnd DFFSR_208/S FILL
XFILL_3_OAI21X1_79 DFFSR_8/gnd DFFSR_8/S FILL
XFILL_2_NAND2X1_97 INVX1_1/gnd DFFSR_97/S FILL
XFILL_7_DFFSR_249 BUFX2_72/gnd DFFSR_276/S FILL
XFILL_1_DFFSR_7 BUFX2_79/A DFFSR_7/S FILL
XFILL_4_NAND2X1_148 INVX1_67/gnd DFFSR_175/S FILL
XFILL_34_DFFSR_176 OR2X2_6/gnd DFFSR_53/S FILL
XFILL_2_OAI21X1_82 DFFSR_28/gnd DFFSR_8/S FILL
XFILL_48_DFFSR_280 OR2X2_6/gnd DFFSR_53/S FILL
XFILL_24_DFFSR_179 OR2X2_1/gnd DFFSR_51/S FILL
XFILL_50_DFFSR_14 INVX1_1/gnd DFFSR_53/S FILL
XFILL_1_OAI21X1_85 INVX1_39/gnd DFFSR_54/S FILL
XFILL_0_INVX1_88 OR2X2_2/gnd DFFSR_216/S FILL
XFILL_28_DFFSR_94 BUFX2_77/gnd DFFSR_98/S FILL
XFILL_39_DFFSR_54 INVX1_39/gnd DFFSR_54/S FILL
XFILL_14_DFFSR_182 XOR2X1_1/gnd DFFSR_208/S FILL
XFILL_0_OAI21X1_88 DFFSR_5/gnd DFFSR_5/S FILL
XFILL_6_DFFSR_11 DFFSR_1/gnd DFFSR_1/S FILL
XFILL_12_DFFSR_44 DFFSR_4/gnd DFFSR_98/S FILL
XBUFX2_3 BUFX2_3/A BUFX2_8/gnd BUFX2_3/Y DFFSR_81/S BUFX2
XFILL_1_OAI21X1_9 INVX1_67/gnd DFFSR_201/S FILL
XFILL_47_DFFSR_100 INVX1_1/gnd DFFSR_97/S FILL
XFILL_0_NAND3X1_208 DFFSR_46/gnd DFFSR_54/S FILL
XFILL_37_DFFSR_103 DFFSR_8/gnd DFFSR_60/S FILL
XFILL_0_DFFSR_179 OR2X2_1/gnd DFFSR_51/S FILL
XFILL_27_DFFSR_106 XOR2X1_4/gnd DFFSR_91/S FILL
XFILL_41_DFFSR_210 BUFX2_98/A DFFSR_6/S FILL
XFILL_3_INVX1_153 INVX1_67/gnd DFFSR_175/S FILL
XFILL_47_DFFSR_61 DFFSR_28/gnd DFFSR_8/S FILL
XFILL_6_AND2X2_20 OR2X2_6/gnd DFFSR_53/S FILL
XFILL_17_DFFSR_109 DFFSR_4/gnd DFFSR_4/S FILL
XFILL_8_OAI21X1_28 XOR2X1_1/gnd DFFSR_151/S FILL
XFILL_28_0_0 NOR3X1_6/gnd DFFSR_79/S FILL
XFILL_31_DFFSR_213 INVX1_3/gnd DFFSR_23/S FILL
XFILL_1_NAND3X1_142 INVX1_67/gnd DFFSR_175/S FILL
XFILL_6_NAND2X1_49 INVX1_3/gnd DFFSR_79/S FILL
XFILL_7_OAI21X1_31 AND2X2_38/B DFFSR_23/S FILL
XFILL_21_DFFSR_216 BUFX2_7/gnd DFFSR_216/S FILL
XFILL_3_DFFSR_58 DFFSR_28/gnd DFFSR_3/S FILL
XFILL_31_DFFSR_11 DFFSR_1/gnd DFFSR_1/S FILL
XFILL_6_DFFPOSX1_16 INVX1_67/gnd DFFSR_175/S FILL
XFILL_20_DFFSR_51 BUFX2_8/gnd DFFSR_51/S FILL
XFILL_6_OAI21X1_34 BUFX2_7/gnd DFFSR_151/S FILL
XFILL_5_NAND2X1_52 OR2X2_6/gnd DFFSR_53/S FILL
XFILL_11_DFFSR_219 INVX1_67/gnd DFFSR_175/S FILL
XFILL_3_NAND2X1_178 INVX1_1/gnd DFFSR_53/S FILL
XFILL_26_2_1 INVX1_3/gnd DFFSR_23/S FILL
XNAND2X1_49 DFFSR_239/Q NOR2X1_34/Y INVX1_3/gnd OAI21X1_15/C DFFSR_79/S NAND2X1
XFILL_5_OAI21X1_37 DFFSR_1/gnd DFFSR_81/S FILL
XFILL_4_NAND2X1_55 INVX1_39/gnd DFFSR_34/S FILL
XFILL_8_1_0 XOR2X1_1/gnd DFFSR_151/S FILL
XOAI21X1_34 INVX1_147/A INVX1_149/Y INVX1_148/Y BUFX2_7/gnd AOI21X1_18/A DFFSR_151/S
+ OAI21X1
XFILL_3_DFFSR_106 XOR2X1_4/gnd DFFSR_91/S FILL
XFILL_3_NAND2X1_58 BUFX2_8/gnd DFFSR_81/S FILL
XFILL_4_OAI21X1_40 DFFSR_34/gnd DFFSR_1/S FILL
XFILL_24_4_2 AND2X2_38/B DFFSR_59/S FILL
XFILL_44_DFFSR_137 BUFX2_7/gnd DFFSR_216/S FILL
XFILL_2_NAND2X1_61 OR2X2_2/gnd DFFSR_216/S FILL
XFILL_3_OAI21X1_43 BUFX2_7/gnd DFFSR_151/S FILL
XFILL_15_DFFPOSX1_35 INVX1_39/gnd DFFSR_54/S FILL
XFILL_46_DFFSR_7 BUFX2_79/A DFFSR_7/S FILL
XFILL_6_3_1 BUFX2_7/gnd DFFSR_216/S FILL
XFILL_7_DFFSR_213 INVX1_3/gnd DFFSR_23/S FILL
XFILL_4_NAND2X1_112 OR2X2_4/gnd DFFSR_3/S FILL
XFILL_34_DFFSR_140 DFFSR_62/gnd DFFSR_208/S FILL
XFILL_1_NAND2X1_64 DFFSR_46/gnd DFFSR_62/S FILL
XFILL_48_DFFSR_244 DFFSR_1/gnd DFFSR_81/S FILL
XFILL_2_OAI21X1_46 DFFSR_34/gnd DFFSR_1/S FILL
XFILL_11_AOI22X1_12 XOR2X1_1/gnd DFFSR_208/S FILL
XFILL_24_DFFSR_143 OR2X2_2/gnd DFFSR_216/S FILL
XFILL_38_DFFSR_247 BUFX2_99/A DFFSR_7/S FILL
XFILL_0_NAND2X1_67 AND2X2_38/B DFFSR_59/S FILL
XFILL_1_OAI21X1_49 DFFSR_34/gnd DFFSR_1/S FILL
XFILL_0_INVX1_190 OR2X2_2/gnd DFFSR_216/S FILL
XFILL_28_DFFSR_58 DFFSR_28/gnd DFFSR_3/S FILL
XFILL_0_INVX1_52 DFFSR_8/gnd DFFSR_8/S FILL
XFILL_17_DFFSR_98 BUFX2_77/gnd DFFSR_98/S FILL
XFILL_39_DFFSR_18 NOR3X1_6/gnd DFFSR_91/S FILL
XFILL_10_AOI22X1_15 DFFSR_46/gnd DFFSR_54/S FILL
XFILL_4_5_2 OR2X2_2/gnd DFFSR_175/S FILL
XFILL_14_DFFSR_146 BUFX2_79/A DFFSR_7/S FILL
XFILL_0_OAI21X1_52 XOR2X1_1/gnd DFFSR_208/S FILL
XFILL_28_DFFSR_250 DFFSR_8/gnd DFFSR_8/S FILL
XFILL_53_2 BUFX2_77/gnd DFFSR_98/S FILL
XFILL_25_DFFPOSX1_24 BUFX2_8/gnd DFFSR_51/S FILL
XFILL_18_DFFSR_253 DFFSR_34/gnd DFFSR_1/S FILL
XFILL_9_AOI22X1_18 OR2X2_1/gnd DFFSR_59/S FILL
XFILL_1_INVX1_9 BUFX2_99/A DFFSR_7/S FILL
XFILL_8_AOI22X1_21 AND2X2_38/B DFFSR_59/S FILL
XFILL_0_NAND3X1_172 DFFSR_1/gnd DFFSR_1/S FILL
XFILL_7_AOI22X1_24 DFFSR_46/gnd DFFSR_62/S FILL
XFILL_5_DFFPOSX1_46 INVX1_39/gnd DFFSR_34/S FILL
XFILL_0_DFFSR_143 OR2X2_2/gnd DFFSR_216/S FILL
XDFFSR_253 BUFX2_94/A CLKBUF1_6/Y BUFX2_66/Y DFFSR_1/S INVX1_96/A DFFSR_34/gnd DFFSR_1/S
+ DFFSR
XFILL_6_AOI22X1_27 OR2X2_6/gnd DFFSR_92/S FILL
XFILL_41_DFFSR_174 BUFX2_8/gnd DFFSR_51/S FILL
XFILL_3_INVX1_117 BUFX2_7/gnd DFFSR_151/S FILL
XFILL_47_DFFSR_25 OR2X2_4/gnd DFFSR_3/S FILL
XFILL_36_DFFSR_65 BUFX2_79/A DFFSR_7/S FILL
XFILL_4_DFFSR_250 DFFSR_8/gnd DFFSR_8/S FILL
XFILL_31_DFFSR_177 DFFSR_46/gnd DFFSR_54/S FILL
XAOI22X1_27 AOI22X1_28/A NAND2X1_98/Y AOI22X1_29/C INVX1_174/A OR2X2_6/gnd OAI21X1_69/B
+ DFFSR_92/S AOI22X1
XFILL_1_NAND3X1_106 INVX1_3/gnd DFFSR_23/S FILL
XFILL_6_NAND2X1_13 BUFX2_99/A DFFSR_92/S FILL
XFILL_21_DFFSR_180 DFFSR_34/gnd DFFSR_34/S FILL
XFILL_3_DFFSR_22 OR2X2_4/gnd DFFSR_32/S FILL
XFILL_20_DFFSR_15 OR2X2_3/gnd DFFSR_4/S FILL
XFILL_5_NAND2X1_16 BUFX2_79/A DFFSR_7/S FILL
XFILL_11_DFFSR_183 INVX1_67/gnd DFFSR_175/S FILL
XFILL_3_NAND2X1_142 INVX1_67/gnd DFFSR_175/S FILL
XNAND2X1_13 DFFSR_114/D NOR2X1_5/Y BUFX2_99/A OAI21X1_2/C DFFSR_92/S NAND2X1
XFILL_4_NAND2X1_19 DFFSR_8/gnd DFFSR_8/S FILL
XFILL_6_NOR2X1_59 DFFSR_34/gnd DFFSR_1/S FILL
XFILL_8_OAI21X1_7 DFFSR_8/gnd DFFSR_8/S FILL
XFILL_3_NAND2X1_22 BUFX2_99/A DFFSR_7/S FILL
XFILL_2_NOR2X1_3 XOR2X1_4/gnd DFFSR_91/S FILL
XDFFPOSX1_16 AOI21X1_7/C CLKBUF1_44/Y OAI21X1_28/Y INVX1_67/gnd DFFSR_175/S DFFPOSX1
XFILL_44_DFFSR_101 OR2X2_3/gnd DFFSR_4/S FILL
XFILL_12_DFFSR_5 DFFSR_5/gnd DFFSR_5/S FILL
XFILL_2_NAND2X1_25 BUFX2_99/A DFFSR_7/S FILL
XFILL_44_DFFSR_72 OR2X2_3/gnd DFFSR_60/S FILL
XFILL_7_DFFSR_177 DFFSR_46/gnd DFFSR_54/S FILL
XFILL_34_DFFSR_104 DFFSR_28/gnd DFFSR_8/S FILL
XFILL_1_NAND2X1_28 AND2X2_38/B DFFSR_59/S FILL
XFILL_2_OAI21X1_10 BUFX2_79/A DFFSR_7/S FILL
XFILL_48_DFFSR_208 DFFSR_62/gnd DFFSR_208/S FILL
XFILL_24_DFFSR_107 OR2X2_6/gnd DFFSR_92/S FILL
XFILL_8_NAND3X1_84 DFFSR_34/gnd DFFSR_34/S FILL
XFILL_38_DFFSR_211 BUFX2_7/gnd DFFSR_216/S FILL
XFILL_0_NAND2X1_31 INVX1_3/gnd DFFSR_23/S FILL
XFILL_1_OAI21X1_13 INVX1_39/gnd DFFSR_54/S FILL
XFILL_28_DFFSR_22 OR2X2_4/gnd DFFSR_32/S FILL
XFILL_0_DFFSR_69 BUFX2_98/A DFFSR_32/S FILL
XFILL_0_INVX1_16 BUFX2_99/A DFFSR_7/S FILL
XFILL_17_DFFSR_62 DFFSR_62/gnd DFFSR_62/S FILL
XFILL_0_INVX1_154 XOR2X1_1/gnd DFFSR_208/S FILL
XFILL_3_AND2X2_21 DFFSR_34/gnd DFFSR_34/S FILL
XFILL_14_DFFSR_110 OR2X2_3/gnd DFFSR_4/S FILL
XFILL_7_NAND3X1_87 DFFSR_46/gnd DFFSR_62/S FILL
XFILL_4_BUFX2_97 OR2X2_3/gnd DFFSR_60/S FILL
XFILL_0_OAI21X1_16 XOR2X1_4/gnd DFFSR_97/S FILL
XFILL_28_DFFSR_214 BUFX2_72/gnd DFFSR_276/S FILL
XFILL_6_NAND3X1_90 OR2X2_1/gnd DFFSR_59/S FILL
XFILL_18_DFFSR_217 BUFX2_72/gnd DFFSR_201/S FILL
XFILL_5_NAND3X1_93 XOR2X1_1/gnd DFFSR_208/S FILL
XFILL_0_NAND3X1_136 DFFSR_1/gnd DFFSR_81/S FILL
XNAND3X1_90 DFFSR_156/D AND2X2_18/B BUFX2_29/Y OR2X2_1/gnd AND2X2_22/B DFFSR_59/S
+ NAND3X1
XFILL_9_NAND3X1_191 BUFX2_7/gnd DFFSR_151/S FILL
XFILL_4_NAND3X1_96 DFFSR_34/gnd DFFSR_1/S FILL
XFILL_33_DFFSR_1 DFFSR_1/gnd DFFSR_1/S FILL
XFILL_5_DFFPOSX1_10 INVX1_67/gnd DFFSR_201/S FILL
XFILL_3_NAND3X1_99 OR2X2_1/gnd DFFSR_51/S FILL
XDFFSR_217 DFFSR_217/Q CLKBUF1_34/Y BUFX2_62/Y DFFSR_201/S INVX1_64/A BUFX2_72/gnd
+ DFFSR_201/S DFFSR
XFILL_0_DFFSR_107 OR2X2_6/gnd DFFSR_92/S FILL
XFILL_2_NAND2X1_172 OR2X2_1/gnd DFFSR_59/S FILL
XFILL_41_DFFSR_138 BUFX2_8/gnd DFFSR_81/S FILL
XFILL_36_DFFSR_29 BUFX2_77/gnd DFFSR_5/S FILL
XFILL_8_DFFSR_76 BUFX2_79/A DFFSR_7/S FILL
XFILL_25_DFFSR_69 BUFX2_98/A DFFSR_32/S FILL
XFILL_4_DFFSR_214 BUFX2_72/gnd DFFSR_276/S FILL
XFILL_31_DFFSR_141 XOR2X1_4/gnd DFFSR_91/S FILL
XFILL_45_DFFSR_245 DFFSR_34/gnd DFFSR_34/S FILL
XFILL_7_CLKBUF1_9 OR2X2_4/gnd DFFSR_3/S FILL
XFILL_21_DFFSR_144 DFFSR_46/gnd DFFSR_62/S FILL
XFILL_14_DFFPOSX1_29 BUFX2_72/gnd DFFSR_276/S FILL
XFILL_35_DFFSR_248 DFFSR_28/gnd DFFSR_8/S FILL
XFILL_3_NAND2X1_106 OR2X2_6/gnd DFFSR_53/S FILL
XFILL_11_DFFSR_147 DFFSR_1/gnd DFFSR_1/S FILL
XFILL_25_DFFSR_251 BUFX2_7/gnd DFFSR_151/S FILL
XFILL_6_NOR2X1_23 OR2X2_4/gnd DFFSR_3/S FILL
XFILL_15_DFFSR_254 DFFSR_34/gnd DFFSR_1/S FILL
XFILL_10_OAI22X1_27 OR2X2_2/gnd DFFSR_216/S FILL
XFILL_44_DFFSR_36 BUFX2_77/gnd DFFSR_98/S FILL
XFILL_33_DFFSR_76 BUFX2_79/A DFFSR_7/S FILL
XFILL_7_DFFSR_141 XOR2X1_4/gnd DFFSR_91/S FILL
XFILL_24_DFFPOSX1_18 DFFSR_46/gnd DFFSR_62/S FILL
XFILL_48_DFFSR_172 DFFSR_46/gnd DFFSR_62/S FILL
XFILL_8_NAND3X1_48 OR2X2_4/gnd DFFSR_3/S FILL
XFILL_9_OAI22X1_30 OR2X2_6/gnd DFFSR_53/S FILL