* XSpice netlist created from SPICE and liberty sources by spi2xspice.py
*SPICE netlist created from BLIF module fir2n by blif2BSpice
.subckt fir2n a_vdd a_gnd a_clk a_rst a_din_0_ a_din_1_ a_din_2_ a_din_3_ a_din_4_ a_din_5_ a_din_6_ a_din_7_ a_dout_0_ a_dout_1_ a_dout_2_ a_dout_3_ a_dout_4_ a_dout_5_ a_dout_6_ a_dout_7_
ABUFX2_1 [clk2.clkout] clk2.clkout_hier0_bF$buf5 d_lut_BUFX2
ABUFX2_2 [clk2.clkout] clk2.clkout_hier0_bF$buf4 d_lut_BUFX2
ABUFX2_3 [clk2.clkout] clk2.clkout_hier0_bF$buf3 d_lut_BUFX2
ABUFX2_4 [clk2.clkout] clk2.clkout_hier0_bF$buf2 d_lut_BUFX2
ABUFX2_5 [clk2.clkout] clk2.clkout_hier0_bF$buf1 d_lut_BUFX2
ABUFX2_6 [clk2.clkout] clk2.clkout_hier0_bF$buf0 d_lut_BUFX2
ABUFX2_7 [counterup.counter_0_] counterup.counter_0_bF$buf3_ d_lut_BUFX2
ABUFX2_8 [counterup.counter_0_] counterup.counter_0_bF$buf2_ d_lut_BUFX2
ABUFX2_9 [counterup.counter_0_] counterup.counter_0_bF$buf1_ d_lut_BUFX2
ABUFX2_10 [counterup.counter_0_] counterup.counter_0_bF$buf0_ d_lut_BUFX2
ACLKBUF1_1 [clk2.clkout_hier0_bF$buf5] clk2.clkout_bF$buf41 d_lut_CLKBUF1
ACLKBUF1_2 [clk2.clkout_hier0_bF$buf4] clk2.clkout_bF$buf40 d_lut_CLKBUF1
ACLKBUF1_3 [clk2.clkout_hier0_bF$buf3] clk2.clkout_bF$buf39 d_lut_CLKBUF1
ACLKBUF1_4 [clk2.clkout_hier0_bF$buf2] clk2.clkout_bF$buf38 d_lut_CLKBUF1
ACLKBUF1_5 [clk2.clkout_hier0_bF$buf1] clk2.clkout_bF$buf37 d_lut_CLKBUF1
ACLKBUF1_6 [clk2.clkout_hier0_bF$buf0] clk2.clkout_bF$buf36 d_lut_CLKBUF1
ACLKBUF1_7 [clk2.clkout_hier0_bF$buf5] clk2.clkout_bF$buf35 d_lut_CLKBUF1
ACLKBUF1_8 [clk2.clkout_hier0_bF$buf4] clk2.clkout_bF$buf34 d_lut_CLKBUF1
ACLKBUF1_9 [clk2.clkout_hier0_bF$buf3] clk2.clkout_bF$buf33 d_lut_CLKBUF1
ACLKBUF1_10 [clk2.clkout_hier0_bF$buf2] clk2.clkout_bF$buf32 d_lut_CLKBUF1
ACLKBUF1_11 [clk2.clkout_hier0_bF$buf1] clk2.clkout_bF$buf31 d_lut_CLKBUF1
ACLKBUF1_12 [clk2.clkout_hier0_bF$buf0] clk2.clkout_bF$buf30 d_lut_CLKBUF1
ACLKBUF1_13 [clk2.clkout_hier0_bF$buf5] clk2.clkout_bF$buf29 d_lut_CLKBUF1
ACLKBUF1_14 [clk2.clkout_hier0_bF$buf4] clk2.clkout_bF$buf28 d_lut_CLKBUF1
ACLKBUF1_15 [clk2.clkout_hier0_bF$buf3] clk2.clkout_bF$buf27 d_lut_CLKBUF1
ACLKBUF1_16 [clk2.clkout_hier0_bF$buf2] clk2.clkout_bF$buf26 d_lut_CLKBUF1
ACLKBUF1_17 [clk2.clkout_hier0_bF$buf1] clk2.clkout_bF$buf25 d_lut_CLKBUF1
ACLKBUF1_18 [clk2.clkout_hier0_bF$buf0] clk2.clkout_bF$buf24 d_lut_CLKBUF1
ACLKBUF1_19 [clk2.clkout_hier0_bF$buf5] clk2.clkout_bF$buf23 d_lut_CLKBUF1
ACLKBUF1_20 [clk2.clkout_hier0_bF$buf4] clk2.clkout_bF$buf22 d_lut_CLKBUF1
ACLKBUF1_21 [clk2.clkout_hier0_bF$buf3] clk2.clkout_bF$buf21 d_lut_CLKBUF1
ACLKBUF1_22 [clk2.clkout_hier0_bF$buf2] clk2.clkout_bF$buf20 d_lut_CLKBUF1
ACLKBUF1_23 [clk2.clkout_hier0_bF$buf1] clk2.clkout_bF$buf19 d_lut_CLKBUF1
ACLKBUF1_24 [clk2.clkout_hier0_bF$buf0] clk2.clkout_bF$buf18 d_lut_CLKBUF1
ACLKBUF1_25 [clk2.clkout_hier0_bF$buf5] clk2.clkout_bF$buf17 d_lut_CLKBUF1
ACLKBUF1_26 [clk2.clkout_hier0_bF$buf4] clk2.clkout_bF$buf16 d_lut_CLKBUF1
ACLKBUF1_27 [clk2.clkout_hier0_bF$buf3] clk2.clkout_bF$buf15 d_lut_CLKBUF1
ACLKBUF1_28 [clk2.clkout_hier0_bF$buf2] clk2.clkout_bF$buf14 d_lut_CLKBUF1
ACLKBUF1_29 [clk2.clkout_hier0_bF$buf1] clk2.clkout_bF$buf13 d_lut_CLKBUF1
ACLKBUF1_30 [clk2.clkout_hier0_bF$buf0] clk2.clkout_bF$buf12 d_lut_CLKBUF1
ACLKBUF1_31 [clk2.clkout_hier0_bF$buf5] clk2.clkout_bF$buf11 d_lut_CLKBUF1
ACLKBUF1_32 [clk2.clkout_hier0_bF$buf4] clk2.clkout_bF$buf10 d_lut_CLKBUF1
ACLKBUF1_33 [clk2.clkout_hier0_bF$buf3] clk2.clkout_bF$buf9 d_lut_CLKBUF1
ACLKBUF1_34 [clk2.clkout_hier0_bF$buf2] clk2.clkout_bF$buf8 d_lut_CLKBUF1
ACLKBUF1_35 [clk2.clkout_hier0_bF$buf1] clk2.clkout_bF$buf7 d_lut_CLKBUF1
ACLKBUF1_36 [clk2.clkout_hier0_bF$buf0] clk2.clkout_bF$buf6 d_lut_CLKBUF1
ACLKBUF1_37 [clk2.clkout_hier0_bF$buf5] clk2.clkout_bF$buf5 d_lut_CLKBUF1
ACLKBUF1_38 [clk2.clkout_hier0_bF$buf4] clk2.clkout_bF$buf4 d_lut_CLKBUF1
ACLKBUF1_39 [clk2.clkout_hier0_bF$buf3] clk2.clkout_bF$buf3 d_lut_CLKBUF1
ACLKBUF1_40 [clk2.clkout_hier0_bF$buf2] clk2.clkout_bF$buf2 d_lut_CLKBUF1
ACLKBUF1_41 [clk2.clkout_hier0_bF$buf1] clk2.clkout_bF$buf1 d_lut_CLKBUF1
ACLKBUF1_42 [clk2.clkout_hier0_bF$buf0] clk2.clkout_bF$buf0 d_lut_CLKBUF1
ABUFX2_11 [_4_] _4__bF$buf3 d_lut_BUFX2
ABUFX2_12 [_4_] _4__bF$buf2 d_lut_BUFX2
ABUFX2_13 [_4_] _4__bF$buf1 d_lut_BUFX2
ABUFX2_14 [_4_] _4__bF$buf0 d_lut_BUFX2
ACLKBUF1_43 [clk] clk_bF$buf6 d_lut_CLKBUF1
ACLKBUF1_44 [clk] clk_bF$buf5 d_lut_CLKBUF1
ACLKBUF1_45 [clk] clk_bF$buf4 d_lut_CLKBUF1
ACLKBUF1_46 [clk] clk_bF$buf3 d_lut_CLKBUF1
ACLKBUF1_47 [clk] clk_bF$buf2 d_lut_CLKBUF1
ACLKBUF1_48 [clk] clk_bF$buf1 d_lut_CLKBUF1
ACLKBUF1_49 [clk] clk_bF$buf0 d_lut_CLKBUF1
ABUFX2_15 [_36_] _36__bF$buf3 d_lut_BUFX2
ABUFX2_16 [_36_] _36__bF$buf2 d_lut_BUFX2
ABUFX2_17 [_36_] _36__bF$buf1 d_lut_BUFX2
ABUFX2_18 [_36_] _36__bF$buf0 d_lut_BUFX2
ABUFX2_19 [_33_] _33__bF$buf3 d_lut_BUFX2
ABUFX2_20 [_33_] _33__bF$buf2 d_lut_BUFX2
ABUFX2_21 [_33_] _33__bF$buf1 d_lut_BUFX2
ABUFX2_22 [_33_] _33__bF$buf0 d_lut_BUFX2
ABUFX2_23 [_229_] _229__bF$buf3 d_lut_BUFX2
ABUFX2_24 [_229_] _229__bF$buf2 d_lut_BUFX2
ABUFX2_25 [_229_] _229__bF$buf1 d_lut_BUFX2
ABUFX2_26 [_229_] _229__bF$buf0 d_lut_BUFX2
ABUFX2_27 [_261_] _261__bF$buf3 d_lut_BUFX2
ABUFX2_28 [_261_] _261__bF$buf2 d_lut_BUFX2
ABUFX2_29 [_261_] _261__bF$buf1 d_lut_BUFX2
ABUFX2_30 [_261_] _261__bF$buf0 d_lut_BUFX2
ABUFX2_31 [_258_] _258__bF$buf3 d_lut_BUFX2
ABUFX2_32 [_258_] _258__bF$buf2 d_lut_BUFX2
ABUFX2_33 [_258_] _258__bF$buf1 d_lut_BUFX2
ABUFX2_34 [_258_] _258__bF$buf0 d_lut_BUFX2
ABUFX2_35 [rst] rst_bF$buf5 d_lut_BUFX2
ABUFX2_36 [rst] rst_bF$buf4 d_lut_BUFX2
ABUFX2_37 [rst] rst_bF$buf3 d_lut_BUFX2
ABUFX2_38 [rst] rst_bF$buf2 d_lut_BUFX2
ABUFX2_39 [rst] rst_bF$buf1 d_lut_BUFX2
ABUFX2_40 [rst] rst_bF$buf0 d_lut_BUFX2
ABUFX2_41 [_0_] _0__bF$buf10 d_lut_BUFX2
ABUFX2_42 [_0_] _0__bF$buf9 d_lut_BUFX2
ABUFX2_43 [_0_] _0__bF$buf8 d_lut_BUFX2
ABUFX2_44 [_0_] _0__bF$buf7 d_lut_BUFX2
ABUFX2_45 [_0_] _0__bF$buf6 d_lut_BUFX2
ABUFX2_46 [_0_] _0__bF$buf5 d_lut_BUFX2
ABUFX2_47 [_0_] _0__bF$buf4 d_lut_BUFX2
ABUFX2_48 [_0_] _0__bF$buf3 d_lut_BUFX2
ABUFX2_49 [_0_] _0__bF$buf2 d_lut_BUFX2
ABUFX2_50 [_0_] _0__bF$buf1 d_lut_BUFX2
ABUFX2_51 [_0_] _0__bF$buf0 d_lut_BUFX2
ABUFX2_52 [mac1.reset] mac1.reset_bF$buf3 d_lut_BUFX2
ABUFX2_53 [mac1.reset] mac1.reset_bF$buf2 d_lut_BUFX2
ABUFX2_54 [mac1.reset] mac1.reset_bF$buf1 d_lut_BUFX2
ABUFX2_55 [mac1.reset] mac1.reset_bF$buf0 d_lut_BUFX2
ABUFX2_56 [rom1.data_0_] rom1.data_0_bF$buf3_ d_lut_BUFX2
ABUFX2_57 [rom1.data_0_] rom1.data_0_bF$buf2_ d_lut_BUFX2
ABUFX2_58 [rom1.data_0_] rom1.data_0_bF$buf1_ d_lut_BUFX2
ABUFX2_59 [rom1.data_0_] rom1.data_0_bF$buf0_ d_lut_BUFX2
ABUFX2_60 [_225_] _225__bF$buf10 d_lut_BUFX2
ABUFX2_61 [_225_] _225__bF$buf9 d_lut_BUFX2
ABUFX2_62 [_225_] _225__bF$buf8 d_lut_BUFX2
ABUFX2_63 [_225_] _225__bF$buf7 d_lut_BUFX2
ABUFX2_64 [_225_] _225__bF$buf6 d_lut_BUFX2
ABUFX2_65 [_225_] _225__bF$buf5 d_lut_BUFX2
ABUFX2_66 [_225_] _225__bF$buf4 d_lut_BUFX2
ABUFX2_67 [_225_] _225__bF$buf3 d_lut_BUFX2
ABUFX2_68 [_225_] _225__bF$buf2 d_lut_BUFX2
ABUFX2_69 [_225_] _225__bF$buf1 d_lut_BUFX2
ABUFX2_70 [_225_] _225__bF$buf0 d_lut_BUFX2
ABUFX2_71 [reg3.dataout_0_] dout_0_ d_lut_BUFX2
ABUFX2_72 [reg3.dataout_1_] dout_1_ d_lut_BUFX2
ABUFX2_73 [reg3.dataout_2_] dout_2_ d_lut_BUFX2
ABUFX2_74 [reg3.dataout_3_] dout_3_ d_lut_BUFX2
ABUFX2_75 [reg3.dataout_4_] dout_4_ d_lut_BUFX2
ABUFX2_76 [reg3.dataout_5_] dout_5_ d_lut_BUFX2
ABUFX2_77 [reg3.dataout_6_] dout_6_ d_lut_BUFX2
ABUFX2_78 [reg3.dataout_7_] dout_7_ d_lut_BUFX2
AINVX1_1 [asr1.rom_6__0_] _1_ d_lut_INVX1
AINVX1_2 [asr1.rom_5__0_] _2_ d_lut_INVX1
AINVX1_3 [counterup.counter_3_] _3_ d_lut_INVX1
AAND2X2_1 [_3_ counterup.counter_2_] _4_ d_lut_AND2X2
AINVX1_4 [counterup.counter_1_] _5_ d_lut_INVX1
AAND2X2_2 [_5_ counterup.counter_0_bF$buf3_] _6_ d_lut_AND2X2
ANAND2X1_1 [_4__bF$buf3 _6_] _7_ d_lut_NAND2X1
ANOR2X1_1 [counterup.counter_0_bF$buf2_ _5_] _8_ d_lut_NOR2X1
ANAND2X1_2 [_8_ _4__bF$buf2] _9_ d_lut_NAND2X1
AOAI22X1_1 [_1_ _9_ _2_ _7_] _10_ d_lut_OAI22X1
AINVX1_5 [asr1.rom_10__0_] _11_ d_lut_INVX1
AINVX1_6 [asr1.rom_9__0_] _12_ d_lut_INVX1
ANOR2X1_2 [counterup.counter_2_ _3_] _13_ d_lut_NOR2X1
ANAND2X1_3 [_13_ _6_] _14_ d_lut_NAND2X1
ANAND2X1_4 [_8_ _13_] _15_ d_lut_NAND2X1
AOAI22X1_2 [_11_ _15_ _12_ _14_] _16_ d_lut_OAI22X1
ANOR2X1_3 [_16_ _10_] _17_ d_lut_NOR2X1
AINVX1_7 [asr1.rom_2__0_] _18_ d_lut_INVX1
AINVX1_8 [asr1.rom_1__0_] _19_ d_lut_INVX1
ANOR2X1_4 [counterup.counter_3_ counterup.counter_2_] _20_ d_lut_NOR2X1
ANAND2X1_5 [_20_ _6_] _21_ d_lut_NAND2X1
ANAND2X1_6 [_20_ _8_] _22_ d_lut_NAND2X1
AOAI22X1_3 [_18_ _22_ _19_ _21_] _23_ d_lut_OAI22X1
AINVX1_9 [asr1.rom_14__0_] _24_ d_lut_INVX1
ANAND2X1_7 [counterup.counter_0_bF$buf1_ _5_] _25_ d_lut_NAND2X1
ANAND2X1_8 [counterup.counter_3_ counterup.counter_2_] _26_ d_lut_NAND2X1
ANOR2X1_5 [_26_ _25_] _27_ d_lut_NOR2X1
ANAND2X1_9 [asr1.rom_13__0_ _27_] _28_ d_lut_NAND2X1
AAND2X2_3 [counterup.counter_3_ counterup.counter_2_] _29_ d_lut_AND2X2
ANAND2X1_10 [_29_ _8_] _30_ d_lut_NAND2X1
AOAI21X1_1 [_24_ _30_ _28_] _31_ d_lut_OAI21X1
ANOR2X1_6 [_23_ _31_] _32_ d_lut_NOR2X1
AAND2X2_4 [counterup.counter_1_ counterup.counter_0_bF$buf0_] _33_ d_lut_AND2X2
AAND2X2_5 [_33__bF$buf3 _20_] _34_ d_lut_AND2X2
ANAND2X1_11 [asr1.rom_3__0_ _34_] _35_ d_lut_NAND2X1
ANOR2X1_7 [counterup.counter_1_ counterup.counter_0_bF$buf3_] _36_ d_lut_NOR2X1
ANAND3X1_1 [asr1.rom_4__0_ _36__bF$buf3 _4__bF$buf1] _37_ d_lut_NAND3X1
ANAND3X1_2 [asr1.rom_0__0_ _20_ _36__bF$buf2] _38_ d_lut_NAND3X1
ANAND3X1_3 [asr1.en_0_ _29_ _33__bF$buf2] _39_ d_lut_NAND3X1
AAND2X2_6 [_39_ _38_] _40_ d_lut_AND2X2
ANAND3X1_4 [_35_ _37_ _40_] _41_ d_lut_NAND3X1
ANAND3X1_5 [asr1.rom_7__0_ _33__bF$buf1 _4__bF$buf0] _42_ d_lut_NAND3X1
ANAND3X1_6 [asr1.rom_8__0_ _36__bF$buf1 _13_] _43_ d_lut_NAND3X1
ANAND2X1_12 [counterup.counter_1_ counterup.counter_0_bF$buf2_] _44_ d_lut_NAND2X1
ANOR3X1_1 [counterup.counter_2_ _3_ _44_] _45_ d_lut_NOR3X1
ANOR3X1_2 [counterup.counter_1_ counterup.counter_0_bF$buf1_ _26_] _46_ d_lut_NOR3X1
AAOI22X1_1 [_46_ asr1.rom_12__0_ asr1.rom_11__0_ _45_] _47_ d_lut_AOI22X1
ANAND3X1_7 [_42_ _43_ _47_] _48_ d_lut_NAND3X1
ANOR2X1_8 [_41_ _48_] _49_ d_lut_NOR2X1
ANAND3X1_8 [_17_ _32_ _49_] asr1.dataout_0_ d_lut_NAND3X1
AINVX1_10 [asr1.rom_6__1_] _50_ d_lut_INVX1
AINVX1_11 [asr1.rom_5__1_] _51_ d_lut_INVX1
AOAI22X1_4 [_50_ _9_ _51_ _7_] _52_ d_lut_OAI22X1
AINVX1_12 [asr1.rom_10__1_] _53_ d_lut_INVX1
AINVX1_13 [asr1.rom_9__1_] _54_ d_lut_INVX1
AOAI22X1_5 [_53_ _15_ _54_ _14_] _55_ d_lut_OAI22X1
ANOR2X1_9 [_55_ _52_] _56_ d_lut_NOR2X1
AINVX1_14 [asr1.rom_2__1_] _57_ d_lut_INVX1
AINVX1_15 [asr1.rom_1__1_] _58_ d_lut_INVX1
AOAI22X1_6 [_57_ _22_ _58_ _21_] _59_ d_lut_OAI22X1
AINVX1_16 [asr1.rom_14__1_] _60_ d_lut_INVX1
ANAND2X1_13 [asr1.rom_13__1_ _27_] _61_ d_lut_NAND2X1
AOAI21X1_2 [_60_ _30_ _61_] _62_ d_lut_OAI21X1
ANOR2X1_10 [_59_ _62_] _63_ d_lut_NOR2X1
ANAND2X1_14 [asr1.rom_3__1_ _34_] _64_ d_lut_NAND2X1
ANAND3X1_9 [asr1.rom_4__1_ _36__bF$buf0 _4__bF$buf3] _65_ d_lut_NAND3X1
ANAND3X1_10 [asr1.rom_0__1_ _20_ _36__bF$buf3] _66_ d_lut_NAND3X1
ANAND3X1_11 [asr1.en_1_ _29_ _33__bF$buf0] _67_ d_lut_NAND3X1
AAND2X2_7 [_67_ _66_] _68_ d_lut_AND2X2
ANAND3X1_12 [_64_ _65_ _68_] _69_ d_lut_NAND3X1
ANAND3X1_13 [asr1.rom_7__1_ _33__bF$buf3 _4__bF$buf2] _70_ d_lut_NAND3X1
ANAND3X1_14 [asr1.rom_8__1_ _36__bF$buf2 _13_] _71_ d_lut_NAND3X1
AAOI22X1_2 [_46_ asr1.rom_12__1_ asr1.rom_11__1_ _45_] _72_ d_lut_AOI22X1
ANAND3X1_15 [_70_ _71_ _72_] _73_ d_lut_NAND3X1
ANOR2X1_11 [_69_ _73_] _74_ d_lut_NOR2X1
ANAND3X1_16 [_56_ _63_ _74_] asr1.dataout_1_ d_lut_NAND3X1
AINVX1_17 [asr1.rom_6__2_] _75_ d_lut_INVX1
AINVX1_18 [asr1.rom_5__2_] _76_ d_lut_INVX1
AOAI22X1_7 [_75_ _9_ _76_ _7_] _77_ d_lut_OAI22X1
AINVX1_19 [asr1.rom_10__2_] _78_ d_lut_INVX1
AINVX1_20 [asr1.rom_9__2_] _79_ d_lut_INVX1
AOAI22X1_8 [_78_ _15_ _79_ _14_] _80_ d_lut_OAI22X1
ANOR2X1_12 [_80_ _77_] _81_ d_lut_NOR2X1
AINVX1_21 [asr1.rom_2__2_] _82_ d_lut_INVX1
AINVX1_22 [asr1.rom_1__2_] _83_ d_lut_INVX1
AOAI22X1_9 [_82_ _22_ _83_ _21_] _84_ d_lut_OAI22X1
AINVX1_23 [asr1.rom_14__2_] _85_ d_lut_INVX1
ANAND2X1_15 [asr1.rom_13__2_ _27_] _86_ d_lut_NAND2X1
AOAI21X1_3 [_85_ _30_ _86_] _87_ d_lut_OAI21X1
ANOR2X1_13 [_84_ _87_] _88_ d_lut_NOR2X1
ANAND2X1_16 [asr1.rom_3__2_ _34_] _89_ d_lut_NAND2X1
ANAND3X1_17 [asr1.rom_4__2_ _36__bF$buf1 _4__bF$buf1] _90_ d_lut_NAND3X1
ANAND3X1_18 [asr1.rom_0__2_ _20_ _36__bF$buf0] _91_ d_lut_NAND3X1
ANAND3X1_19 [asr1.en_2_ _29_ _33__bF$buf2] _92_ d_lut_NAND3X1
AAND2X2_8 [_92_ _91_] _93_ d_lut_AND2X2
ANAND3X1_20 [_89_ _90_ _93_] _94_ d_lut_NAND3X1
ANAND3X1_21 [asr1.rom_7__2_ _33__bF$buf1 _4__bF$buf0] _95_ d_lut_NAND3X1
ANAND3X1_22 [asr1.rom_8__2_ _36__bF$buf3 _13_] _96_ d_lut_NAND3X1
AAOI22X1_3 [_46_ asr1.rom_12__2_ asr1.rom_11__2_ _45_] _97_ d_lut_AOI22X1
ANAND3X1_23 [_95_ _96_ _97_] _98_ d_lut_NAND3X1
ANOR2X1_14 [_94_ _98_] _99_ d_lut_NOR2X1
ANAND3X1_24 [_81_ _88_ _99_] asr1.dataout_2_ d_lut_NAND3X1
AINVX1_24 [asr1.rom_6__3_] _100_ d_lut_INVX1
AINVX1_25 [asr1.rom_5__3_] _101_ d_lut_INVX1
AOAI22X1_10 [_100_ _9_ _101_ _7_] _102_ d_lut_OAI22X1
AINVX1_26 [asr1.rom_10__3_] _103_ d_lut_INVX1
AINVX1_27 [asr1.rom_9__3_] _104_ d_lut_INVX1
AOAI22X1_11 [_103_ _15_ _104_ _14_] _105_ d_lut_OAI22X1
ANOR2X1_15 [_105_ _102_] _106_ d_lut_NOR2X1
AINVX1_28 [asr1.rom_2__3_] _107_ d_lut_INVX1
AINVX1_29 [asr1.rom_1__3_] _108_ d_lut_INVX1
AOAI22X1_12 [_107_ _22_ _108_ _21_] _109_ d_lut_OAI22X1
AINVX1_30 [asr1.rom_14__3_] _110_ d_lut_INVX1
ANAND2X1_17 [asr1.rom_13__3_ _27_] _111_ d_lut_NAND2X1
AOAI21X1_4 [_110_ _30_ _111_] _112_ d_lut_OAI21X1
ANOR2X1_16 [_109_ _112_] _113_ d_lut_NOR2X1
ANAND2X1_18 [asr1.rom_3__3_ _34_] _114_ d_lut_NAND2X1
ANAND3X1_25 [asr1.rom_4__3_ _36__bF$buf2 _4__bF$buf3] _115_ d_lut_NAND3X1
ANAND3X1_26 [asr1.rom_0__3_ _20_ _36__bF$buf1] _116_ d_lut_NAND3X1
ANAND3X1_27 [asr1.en_3_ _29_ _33__bF$buf0] _117_ d_lut_NAND3X1
AAND2X2_9 [_117_ _116_] _118_ d_lut_AND2X2
ANAND3X1_28 [_114_ _115_ _118_] _119_ d_lut_NAND3X1
ANAND3X1_29 [asr1.rom_7__3_ _33__bF$buf3 _4__bF$buf2] _120_ d_lut_NAND3X1
ANAND3X1_30 [asr1.rom_8__3_ _36__bF$buf0 _13_] _121_ d_lut_NAND3X1
AAOI22X1_4 [_46_ asr1.rom_12__3_ asr1.rom_11__3_ _45_] _122_ d_lut_AOI22X1
ANAND3X1_31 [_120_ _121_ _122_] _123_ d_lut_NAND3X1
ANOR2X1_17 [_119_ _123_] _124_ d_lut_NOR2X1
ANAND3X1_32 [_106_ _113_ _124_] asr1.dataout_3_ d_lut_NAND3X1
AINVX1_31 [asr1.rom_6__4_] _125_ d_lut_INVX1
AINVX1_32 [asr1.rom_5__4_] _126_ d_lut_INVX1
AOAI22X1_13 [_125_ _9_ _126_ _7_] _127_ d_lut_OAI22X1
AINVX1_33 [asr1.rom_10__4_] _128_ d_lut_INVX1
AINVX1_34 [asr1.rom_9__4_] _129_ d_lut_INVX1
AOAI22X1_14 [_128_ _15_ _129_ _14_] _130_ d_lut_OAI22X1
ANOR2X1_18 [_130_ _127_] _131_ d_lut_NOR2X1
AINVX1_35 [asr1.rom_2__4_] _132_ d_lut_INVX1
AINVX1_36 [asr1.rom_1__4_] _133_ d_lut_INVX1
AOAI22X1_15 [_132_ _22_ _133_ _21_] _134_ d_lut_OAI22X1
AINVX1_37 [asr1.rom_14__4_] _135_ d_lut_INVX1
ANAND2X1_19 [asr1.rom_13__4_ _27_] _136_ d_lut_NAND2X1
AOAI21X1_5 [_135_ _30_ _136_] _137_ d_lut_OAI21X1
ANOR2X1_19 [_134_ _137_] _138_ d_lut_NOR2X1
ANAND2X1_20 [asr1.rom_3__4_ _34_] _139_ d_lut_NAND2X1
ANAND3X1_33 [asr1.rom_4__4_ _36__bF$buf3 _4__bF$buf1] _140_ d_lut_NAND3X1
ANAND3X1_34 [asr1.rom_0__4_ _20_ _36__bF$buf2] _141_ d_lut_NAND3X1
ANAND3X1_35 [asr1.en_4_ _29_ _33__bF$buf2] _142_ d_lut_NAND3X1
AAND2X2_10 [_142_ _141_] _143_ d_lut_AND2X2
ANAND3X1_36 [_139_ _140_ _143_] _144_ d_lut_NAND3X1
ANAND3X1_37 [asr1.rom_7__4_ _33__bF$buf1 _4__bF$buf0] _145_ d_lut_NAND3X1
ANAND3X1_38 [asr1.rom_8__4_ _36__bF$buf1 _13_] _146_ d_lut_NAND3X1
AAOI22X1_5 [_46_ asr1.rom_12__4_ asr1.rom_11__4_ _45_] _147_ d_lut_AOI22X1
ANAND3X1_39 [_145_ _146_ _147_] _148_ d_lut_NAND3X1
ANOR2X1_20 [_144_ _148_] _149_ d_lut_NOR2X1
ANAND3X1_40 [_131_ _138_ _149_] asr1.dataout_4_ d_lut_NAND3X1
AINVX1_38 [asr1.rom_6__5_] _150_ d_lut_INVX1
AINVX1_39 [asr1.rom_5__5_] _151_ d_lut_INVX1
AOAI22X1_16 [_150_ _9_ _151_ _7_] _152_ d_lut_OAI22X1
AINVX1_40 [asr1.rom_10__5_] _153_ d_lut_INVX1
AINVX1_41 [asr1.rom_9__5_] _154_ d_lut_INVX1
AOAI22X1_17 [_153_ _15_ _154_ _14_] _155_ d_lut_OAI22X1
ANOR2X1_21 [_155_ _152_] _156_ d_lut_NOR2X1
AINVX1_42 [asr1.rom_2__5_] _157_ d_lut_INVX1
AINVX1_43 [asr1.rom_1__5_] _158_ d_lut_INVX1
AOAI22X1_18 [_157_ _22_ _158_ _21_] _159_ d_lut_OAI22X1
AINVX1_44 [asr1.rom_14__5_] _160_ d_lut_INVX1
ANAND2X1_21 [asr1.rom_13__5_ _27_] _161_ d_lut_NAND2X1
AOAI21X1_6 [_160_ _30_ _161_] _162_ d_lut_OAI21X1
ANOR2X1_22 [_159_ _162_] _163_ d_lut_NOR2X1
ANAND2X1_22 [asr1.rom_3__5_ _34_] _164_ d_lut_NAND2X1
ANAND3X1_41 [asr1.rom_4__5_ _36__bF$buf0 _4__bF$buf3] _165_ d_lut_NAND3X1
ANAND3X1_42 [asr1.rom_0__5_ _20_ _36__bF$buf3] _166_ d_lut_NAND3X1
ANAND3X1_43 [asr1.en_5_ _29_ _33__bF$buf0] _167_ d_lut_NAND3X1
AAND2X2_11 [_167_ _166_] _168_ d_lut_AND2X2
ANAND3X1_44 [_164_ _165_ _168_] _169_ d_lut_NAND3X1
ANAND3X1_45 [asr1.rom_7__5_ _33__bF$buf3 _4__bF$buf2] _170_ d_lut_NAND3X1
ANAND3X1_46 [asr1.rom_8__5_ _36__bF$buf2 _13_] _171_ d_lut_NAND3X1
AAOI22X1_6 [_46_ asr1.rom_12__5_ asr1.rom_11__5_ _45_] _172_ d_lut_AOI22X1
ANAND3X1_47 [_170_ _171_ _172_] _173_ d_lut_NAND3X1
ANOR2X1_23 [_169_ _173_] _174_ d_lut_NOR2X1
ANAND3X1_48 [_156_ _163_ _174_] asr1.dataout_5_ d_lut_NAND3X1
AINVX1_45 [asr1.rom_6__6_] _175_ d_lut_INVX1
AINVX1_46 [asr1.rom_5__6_] _176_ d_lut_INVX1
AOAI22X1_19 [_175_ _9_ _176_ _7_] _177_ d_lut_OAI22X1
AINVX1_47 [asr1.rom_10__6_] _178_ d_lut_INVX1
AINVX1_48 [asr1.rom_9__6_] _179_ d_lut_INVX1
AOAI22X1_20 [_178_ _15_ _179_ _14_] _180_ d_lut_OAI22X1
ANOR2X1_24 [_180_ _177_] _181_ d_lut_NOR2X1
AINVX1_49 [asr1.rom_2__6_] _182_ d_lut_INVX1
AINVX1_50 [asr1.rom_1__6_] _183_ d_lut_INVX1
AOAI22X1_21 [_182_ _22_ _183_ _21_] _184_ d_lut_OAI22X1
AINVX1_51 [asr1.rom_14__6_] _185_ d_lut_INVX1
ANAND2X1_23 [asr1.rom_13__6_ _27_] _186_ d_lut_NAND2X1
AOAI21X1_7 [_185_ _30_ _186_] _187_ d_lut_OAI21X1
ANOR2X1_25 [_184_ _187_] _188_ d_lut_NOR2X1
ANAND2X1_24 [asr1.rom_3__6_ _34_] _189_ d_lut_NAND2X1
ANAND3X1_49 [asr1.rom_4__6_ _36__bF$buf1 _4__bF$buf1] _190_ d_lut_NAND3X1
ANAND3X1_50 [asr1.rom_0__6_ _20_ _36__bF$buf0] _191_ d_lut_NAND3X1
ANAND3X1_51 [asr1.en_6_ _29_ _33__bF$buf2] _192_ d_lut_NAND3X1
AAND2X2_12 [_192_ _191_] _193_ d_lut_AND2X2
ANAND3X1_52 [_189_ _190_ _193_] _194_ d_lut_NAND3X1
ANAND3X1_53 [asr1.rom_7__6_ _33__bF$buf1 _4__bF$buf0] _195_ d_lut_NAND3X1
ANAND3X1_54 [asr1.rom_8__6_ _36__bF$buf3 _13_] _196_ d_lut_NAND3X1
AAOI22X1_7 [_46_ asr1.rom_12__6_ asr1.rom_11__6_ _45_] _197_ d_lut_AOI22X1
ANAND3X1_55 [_195_ _196_ _197_] _198_ d_lut_NAND3X1
ANOR2X1_26 [_194_ _198_] _199_ d_lut_NOR2X1
ANAND3X1_56 [_181_ _188_ _199_] asr1.dataout_6_ d_lut_NAND3X1
AINVX1_52 [asr1.rom_6__7_] _200_ d_lut_INVX1
AINVX1_53 [asr1.rom_5__7_] _201_ d_lut_INVX1
AOAI22X1_22 [_200_ _9_ _201_ _7_] _202_ d_lut_OAI22X1
AINVX1_54 [asr1.rom_10__7_] _203_ d_lut_INVX1
AINVX1_55 [asr1.rom_9__7_] _204_ d_lut_INVX1
AOAI22X1_23 [_203_ _15_ _204_ _14_] _205_ d_lut_OAI22X1
ANOR2X1_27 [_205_ _202_] _206_ d_lut_NOR2X1
AINVX1_56 [asr1.rom_2__7_] _207_ d_lut_INVX1
AINVX1_57 [asr1.rom_1__7_] _208_ d_lut_INVX1
AOAI22X1_24 [_207_ _22_ _208_ _21_] _209_ d_lut_OAI22X1
AINVX1_58 [asr1.rom_14__7_] _210_ d_lut_INVX1
ANAND2X1_25 [asr1.rom_13__7_ _27_] _211_ d_lut_NAND2X1
AOAI21X1_8 [_210_ _30_ _211_] _212_ d_lut_OAI21X1
ANOR2X1_28 [_209_ _212_] _213_ d_lut_NOR2X1
ANAND2X1_26 [asr1.rom_3__7_ _34_] _214_ d_lut_NAND2X1
ANAND3X1_57 [asr1.rom_4__7_ _36__bF$buf2 _4__bF$buf3] _215_ d_lut_NAND3X1
ANAND3X1_58 [asr1.rom_0__7_ _20_ _36__bF$buf1] _216_ d_lut_NAND3X1
ANAND3X1_59 [asr1.en_7_ _29_ _33__bF$buf0] _217_ d_lut_NAND3X1
AAND2X2_13 [_217_ _216_] _218_ d_lut_AND2X2
ANAND3X1_60 [_214_ _215_ _218_] _219_ d_lut_NAND3X1
ANAND3X1_61 [asr1.rom_7__7_ _33__bF$buf3 _4__bF$buf2] _220_ d_lut_NAND3X1
ANAND3X1_62 [asr1.rom_8__7_ _36__bF$buf0 _13_] _221_ d_lut_NAND3X1
AAOI22X1_8 [_46_ asr1.rom_12__7_ asr1.rom_11__7_ _45_] _222_ d_lut_AOI22X1
ANAND3X1_63 [_220_ _221_ _222_] _223_ d_lut_NAND3X1
ANOR2X1_29 [_219_ _223_] _224_ d_lut_NOR2X1
ANAND3X1_64 [_206_ _213_ _224_] asr1.dataout_7_ d_lut_NAND3X1
AINVX1_59 [rst_bF$buf5] _0_ d_lut_INVX1
ADFFSR_1 reg1.dataout_0_ clk2.clkout_bF$buf41 ~vdd ~_0__bF$buf10 asr1.rom_0__0_ NULL ddflop
ADFFSR_2 reg1.dataout_1_ clk2.clkout_bF$buf40 ~vdd ~_0__bF$buf9 asr1.rom_0__1_ NULL ddflop
ADFFSR_3 reg1.dataout_2_ clk2.clkout_bF$buf39 ~vdd ~_0__bF$buf8 asr1.rom_0__2_ NULL ddflop
ADFFSR_4 reg1.dataout_3_ clk2.clkout_bF$buf38 ~vdd ~_0__bF$buf7 asr1.rom_0__3_ NULL ddflop
ADFFSR_5 reg1.dataout_4_ clk2.clkout_bF$buf37 ~vdd ~_0__bF$buf6 asr1.rom_0__4_ NULL ddflop
ADFFSR_6 reg1.dataout_5_ clk2.clkout_bF$buf36 ~vdd ~_0__bF$buf5 asr1.rom_0__5_ NULL ddflop
ADFFSR_7 reg1.dataout_6_ clk2.clkout_bF$buf35 ~vdd ~_0__bF$buf4 asr1.rom_0__6_ NULL ddflop
ADFFSR_8 reg1.dataout_7_ clk2.clkout_bF$buf34 ~vdd ~_0__bF$buf3 asr1.rom_0__7_ NULL ddflop
ADFFSR_9 asr1.rom_6__0_ clk2.clkout_bF$buf33 ~vdd ~_0__bF$buf2 asr1.rom_7__0_ NULL ddflop
ADFFSR_10 asr1.rom_6__1_ clk2.clkout_bF$buf32 ~vdd ~_0__bF$buf1 asr1.rom_7__1_ NULL ddflop
ADFFSR_11 asr1.rom_6__2_ clk2.clkout_bF$buf31 ~vdd ~_0__bF$buf0 asr1.rom_7__2_ NULL ddflop
ADFFSR_12 asr1.rom_6__3_ clk2.clkout_bF$buf30 ~vdd ~_0__bF$buf10 asr1.rom_7__3_ NULL ddflop
ADFFSR_13 asr1.rom_6__4_ clk2.clkout_bF$buf29 ~vdd ~_0__bF$buf9 asr1.rom_7__4_ NULL ddflop
ADFFSR_14 asr1.rom_6__5_ clk2.clkout_bF$buf28 ~vdd ~_0__bF$buf8 asr1.rom_7__5_ NULL ddflop
ADFFSR_15 asr1.rom_6__6_ clk2.clkout_bF$buf27 ~vdd ~_0__bF$buf7 asr1.rom_7__6_ NULL ddflop
ADFFSR_16 asr1.rom_6__7_ clk2.clkout_bF$buf26 ~vdd ~_0__bF$buf6 asr1.rom_7__7_ NULL ddflop
ADFFSR_17 asr1.rom_1__0_ clk2.clkout_bF$buf25 ~vdd ~_0__bF$buf5 asr1.rom_2__0_ NULL ddflop
ADFFSR_18 asr1.rom_1__1_ clk2.clkout_bF$buf24 ~vdd ~_0__bF$buf4 asr1.rom_2__1_ NULL ddflop
ADFFSR_19 asr1.rom_1__2_ clk2.clkout_bF$buf23 ~vdd ~_0__bF$buf3 asr1.rom_2__2_ NULL ddflop
ADFFSR_20 asr1.rom_1__3_ clk2.clkout_bF$buf22 ~vdd ~_0__bF$buf2 asr1.rom_2__3_ NULL ddflop
ADFFSR_21 asr1.rom_1__4_ clk2.clkout_bF$buf21 ~vdd ~_0__bF$buf1 asr1.rom_2__4_ NULL ddflop
ADFFSR_22 asr1.rom_1__5_ clk2.clkout_bF$buf20 ~vdd ~_0__bF$buf0 asr1.rom_2__5_ NULL ddflop
ADFFSR_23 asr1.rom_1__6_ clk2.clkout_bF$buf19 ~vdd ~_0__bF$buf10 asr1.rom_2__6_ NULL ddflop
ADFFSR_24 asr1.rom_1__7_ clk2.clkout_bF$buf18 ~vdd ~_0__bF$buf9 asr1.rom_2__7_ NULL ddflop
ADFFSR_25 asr1.rom_0__0_ clk2.clkout_bF$buf17 ~vdd ~_0__bF$buf8 asr1.rom_1__0_ NULL ddflop
ADFFSR_26 asr1.rom_0__1_ clk2.clkout_bF$buf16 ~vdd ~_0__bF$buf7 asr1.rom_1__1_ NULL ddflop
ADFFSR_27 asr1.rom_0__2_ clk2.clkout_bF$buf15 ~vdd ~_0__bF$buf6 asr1.rom_1__2_ NULL ddflop
ADFFSR_28 asr1.rom_0__3_ clk2.clkout_bF$buf14 ~vdd ~_0__bF$buf5 asr1.rom_1__3_ NULL ddflop
ADFFSR_29 asr1.rom_0__4_ clk2.clkout_bF$buf13 ~vdd ~_0__bF$buf4 asr1.rom_1__4_ NULL ddflop
ADFFSR_30 asr1.rom_0__5_ clk2.clkout_bF$buf12 ~vdd ~_0__bF$buf3 asr1.rom_1__5_ NULL ddflop
ADFFSR_31 asr1.rom_0__6_ clk2.clkout_bF$buf11 ~vdd ~_0__bF$buf2 asr1.rom_1__6_ NULL ddflop
ADFFSR_32 asr1.rom_0__7_ clk2.clkout_bF$buf10 ~vdd ~_0__bF$buf1 asr1.rom_1__7_ NULL ddflop
ADFFSR_33 asr1.rom_2__0_ clk2.clkout_bF$buf9 ~vdd ~_0__bF$buf0 asr1.rom_3__0_ NULL ddflop
ADFFSR_34 asr1.rom_2__1_ clk2.clkout_bF$buf8 ~vdd ~_0__bF$buf10 asr1.rom_3__1_ NULL ddflop
ADFFSR_35 asr1.rom_2__2_ clk2.clkout_bF$buf7 ~vdd ~_0__bF$buf9 asr1.rom_3__2_ NULL ddflop
ADFFSR_36 asr1.rom_2__3_ clk2.clkout_bF$buf6 ~vdd ~_0__bF$buf8 asr1.rom_3__3_ NULL ddflop
ADFFSR_37 asr1.rom_2__4_ clk2.clkout_bF$buf5 ~vdd ~_0__bF$buf7 asr1.rom_3__4_ NULL ddflop
ADFFSR_38 asr1.rom_2__5_ clk2.clkout_bF$buf4 ~vdd ~_0__bF$buf6 asr1.rom_3__5_ NULL ddflop
ADFFSR_39 asr1.rom_2__6_ clk2.clkout_bF$buf3 ~vdd ~_0__bF$buf5 asr1.rom_3__6_ NULL ddflop
ADFFSR_40 asr1.rom_2__7_ clk2.clkout_bF$buf2 ~vdd ~_0__bF$buf4 asr1.rom_3__7_ NULL ddflop
ADFFSR_41 asr1.rom_3__0_ clk2.clkout_bF$buf1 ~vdd ~_0__bF$buf3 asr1.rom_4__0_ NULL ddflop
ADFFSR_42 asr1.rom_3__1_ clk2.clkout_bF$buf0 ~vdd ~_0__bF$buf2 asr1.rom_4__1_ NULL ddflop
ADFFSR_43 asr1.rom_3__2_ clk2.clkout_bF$buf41 ~vdd ~_0__bF$buf1 asr1.rom_4__2_ NULL ddflop
ADFFSR_44 asr1.rom_3__3_ clk2.clkout_bF$buf40 ~vdd ~_0__bF$buf0 asr1.rom_4__3_ NULL ddflop
ADFFSR_45 asr1.rom_3__4_ clk2.clkout_bF$buf39 ~vdd ~_0__bF$buf10 asr1.rom_4__4_ NULL ddflop
ADFFSR_46 asr1.rom_3__5_ clk2.clkout_bF$buf38 ~vdd ~_0__bF$buf9 asr1.rom_4__5_ NULL ddflop
ADFFSR_47 asr1.rom_3__6_ clk2.clkout_bF$buf37 ~vdd ~_0__bF$buf8 asr1.rom_4__6_ NULL ddflop
ADFFSR_48 asr1.rom_3__7_ clk2.clkout_bF$buf36 ~vdd ~_0__bF$buf7 asr1.rom_4__7_ NULL ddflop
ADFFSR_49 asr1.rom_5__0_ clk2.clkout_bF$buf35 ~vdd ~_0__bF$buf6 asr1.rom_6__0_ NULL ddflop
ADFFSR_50 asr1.rom_5__1_ clk2.clkout_bF$buf34 ~vdd ~_0__bF$buf5 asr1.rom_6__1_ NULL ddflop
ADFFSR_51 asr1.rom_5__2_ clk2.clkout_bF$buf33 ~vdd ~_0__bF$buf4 asr1.rom_6__2_ NULL ddflop
ADFFSR_52 asr1.rom_5__3_ clk2.clkout_bF$buf32 ~vdd ~_0__bF$buf3 asr1.rom_6__3_ NULL ddflop
ADFFSR_53 asr1.rom_5__4_ clk2.clkout_bF$buf31 ~vdd ~_0__bF$buf2 asr1.rom_6__4_ NULL ddflop
ADFFSR_54 asr1.rom_5__5_ clk2.clkout_bF$buf30 ~vdd ~_0__bF$buf1 asr1.rom_6__5_ NULL ddflop
ADFFSR_55 asr1.rom_5__6_ clk2.clkout_bF$buf29 ~vdd ~_0__bF$buf0 asr1.rom_6__6_ NULL ddflop
ADFFSR_56 asr1.rom_5__7_ clk2.clkout_bF$buf28 ~vdd ~_0__bF$buf10 asr1.rom_6__7_ NULL ddflop
ADFFSR_57 asr1.rom_4__0_ clk2.clkout_bF$buf27 ~vdd ~_0__bF$buf9 asr1.rom_5__0_ NULL ddflop
ADFFSR_58 asr1.rom_4__1_ clk2.clkout_bF$buf26 ~vdd ~_0__bF$buf8 asr1.rom_5__1_ NULL ddflop
ADFFSR_59 asr1.rom_4__2_ clk2.clkout_bF$buf25 ~vdd ~_0__bF$buf7 asr1.rom_5__2_ NULL ddflop
ADFFSR_60 asr1.rom_4__3_ clk2.clkout_bF$buf24 ~vdd ~_0__bF$buf6 asr1.rom_5__3_ NULL ddflop
ADFFSR_61 asr1.rom_4__4_ clk2.clkout_bF$buf23 ~vdd ~_0__bF$buf5 asr1.rom_5__4_ NULL ddflop
ADFFSR_62 asr1.rom_4__5_ clk2.clkout_bF$buf22 ~vdd ~_0__bF$buf4 asr1.rom_5__5_ NULL ddflop
ADFFSR_63 asr1.rom_4__6_ clk2.clkout_bF$buf21 ~vdd ~_0__bF$buf3 asr1.rom_5__6_ NULL ddflop
ADFFSR_64 asr1.rom_4__7_ clk2.clkout_bF$buf20 ~vdd ~_0__bF$buf2 asr1.rom_5__7_ NULL ddflop
ADFFSR_65 asr1.rom_7__0_ clk2.clkout_bF$buf19 ~vdd ~_0__bF$buf1 asr1.rom_8__0_ NULL ddflop
ADFFSR_66 asr1.rom_7__1_ clk2.clkout_bF$buf18 ~vdd ~_0__bF$buf0 asr1.rom_8__1_ NULL ddflop
ADFFSR_67 asr1.rom_7__2_ clk2.clkout_bF$buf17 ~vdd ~_0__bF$buf10 asr1.rom_8__2_ NULL ddflop
ADFFSR_68 asr1.rom_7__3_ clk2.clkout_bF$buf16 ~vdd ~_0__bF$buf9 asr1.rom_8__3_ NULL ddflop
ADFFSR_69 asr1.rom_7__4_ clk2.clkout_bF$buf15 ~vdd ~_0__bF$buf8 asr1.rom_8__4_ NULL ddflop
ADFFSR_70 asr1.rom_7__5_ clk2.clkout_bF$buf14 ~vdd ~_0__bF$buf7 asr1.rom_8__5_ NULL ddflop
ADFFSR_71 asr1.rom_7__6_ clk2.clkout_bF$buf13 ~vdd ~_0__bF$buf6 asr1.rom_8__6_ NULL ddflop
ADFFSR_72 asr1.rom_7__7_ clk2.clkout_bF$buf12 ~vdd ~_0__bF$buf5 asr1.rom_8__7_ NULL ddflop
ADFFSR_73 asr1.rom_8__0_ clk2.clkout_bF$buf11 ~vdd ~_0__bF$buf4 asr1.rom_9__0_ NULL ddflop
ADFFSR_74 asr1.rom_8__1_ clk2.clkout_bF$buf10 ~vdd ~_0__bF$buf3 asr1.rom_9__1_ NULL ddflop
ADFFSR_75 asr1.rom_8__2_ clk2.clkout_bF$buf9 ~vdd ~_0__bF$buf2 asr1.rom_9__2_ NULL ddflop
ADFFSR_76 asr1.rom_8__3_ clk2.clkout_bF$buf8 ~vdd ~_0__bF$buf1 asr1.rom_9__3_ NULL ddflop
ADFFSR_77 asr1.rom_8__4_ clk2.clkout_bF$buf7 ~vdd ~_0__bF$buf0 asr1.rom_9__4_ NULL ddflop
ADFFSR_78 asr1.rom_8__5_ clk2.clkout_bF$buf6 ~vdd ~_0__bF$buf10 asr1.rom_9__5_ NULL ddflop
ADFFSR_79 asr1.rom_8__6_ clk2.clkout_bF$buf5 ~vdd ~_0__bF$buf9 asr1.rom_9__6_ NULL ddflop
ADFFSR_80 asr1.rom_8__7_ clk2.clkout_bF$buf4 ~vdd ~_0__bF$buf8 asr1.rom_9__7_ NULL ddflop
ADFFSR_81 asr1.rom_9__0_ clk2.clkout_bF$buf3 ~vdd ~_0__bF$buf7 asr1.rom_10__0_ NULL ddflop
ADFFSR_82 asr1.rom_9__1_ clk2.clkout_bF$buf2 ~vdd ~_0__bF$buf6 asr1.rom_10__1_ NULL ddflop
ADFFSR_83 asr1.rom_9__2_ clk2.clkout_bF$buf1 ~vdd ~_0__bF$buf5 asr1.rom_10__2_ NULL ddflop
ADFFSR_84 asr1.rom_9__3_ clk2.clkout_bF$buf0 ~vdd ~_0__bF$buf4 asr1.rom_10__3_ NULL ddflop
ADFFSR_85 asr1.rom_9__4_ clk2.clkout_bF$buf41 ~vdd ~_0__bF$buf3 asr1.rom_10__4_ NULL ddflop
ADFFSR_86 asr1.rom_9__5_ clk2.clkout_bF$buf40 ~vdd ~_0__bF$buf2 asr1.rom_10__5_ NULL ddflop
ADFFSR_87 asr1.rom_9__6_ clk2.clkout_bF$buf39 ~vdd ~_0__bF$buf1 asr1.rom_10__6_ NULL ddflop
ADFFSR_88 asr1.rom_9__7_ clk2.clkout_bF$buf38 ~vdd ~_0__bF$buf0 asr1.rom_10__7_ NULL ddflop
ADFFSR_89 asr1.rom_10__0_ clk2.clkout_bF$buf37 ~vdd ~_0__bF$buf10 asr1.rom_11__0_ NULL ddflop
ADFFSR_90 asr1.rom_10__1_ clk2.clkout_bF$buf36 ~vdd ~_0__bF$buf9 asr1.rom_11__1_ NULL ddflop
ADFFSR_91 asr1.rom_10__2_ clk2.clkout_bF$buf35 ~vdd ~_0__bF$buf8 asr1.rom_11__2_ NULL ddflop
ADFFSR_92 asr1.rom_10__3_ clk2.clkout_bF$buf34 ~vdd ~_0__bF$buf7 asr1.rom_11__3_ NULL ddflop
ADFFSR_93 asr1.rom_10__4_ clk2.clkout_bF$buf33 ~vdd ~_0__bF$buf6 asr1.rom_11__4_ NULL ddflop
ADFFSR_94 asr1.rom_10__5_ clk2.clkout_bF$buf32 ~vdd ~_0__bF$buf5 asr1.rom_11__5_ NULL ddflop
ADFFSR_95 asr1.rom_10__6_ clk2.clkout_bF$buf31 ~vdd ~_0__bF$buf4 asr1.rom_11__6_ NULL ddflop
ADFFSR_96 asr1.rom_10__7_ clk2.clkout_bF$buf30 ~vdd ~_0__bF$buf3 asr1.rom_11__7_ NULL ddflop
ADFFSR_97 asr1.rom_11__0_ clk2.clkout_bF$buf29 ~vdd ~_0__bF$buf2 asr1.rom_12__0_ NULL ddflop
ADFFSR_98 asr1.rom_11__1_ clk2.clkout_bF$buf28 ~vdd ~_0__bF$buf1 asr1.rom_12__1_ NULL ddflop
ADFFSR_99 asr1.rom_11__2_ clk2.clkout_bF$buf27 ~vdd ~_0__bF$buf0 asr1.rom_12__2_ NULL ddflop
ADFFSR_100 asr1.rom_11__3_ clk2.clkout_bF$buf26 ~vdd ~_0__bF$buf10 asr1.rom_12__3_ NULL ddflop
ADFFSR_101 asr1.rom_11__4_ clk2.clkout_bF$buf25 ~vdd ~_0__bF$buf9 asr1.rom_12__4_ NULL ddflop
ADFFSR_102 asr1.rom_11__5_ clk2.clkout_bF$buf24 ~vdd ~_0__bF$buf8 asr1.rom_12__5_ NULL ddflop
ADFFSR_103 asr1.rom_11__6_ clk2.clkout_bF$buf23 ~vdd ~_0__bF$buf7 asr1.rom_12__6_ NULL ddflop
ADFFSR_104 asr1.rom_11__7_ clk2.clkout_bF$buf22 ~vdd ~_0__bF$buf6 asr1.rom_12__7_ NULL ddflop
ADFFSR_105 asr1.rom_12__0_ clk2.clkout_bF$buf21 ~vdd ~_0__bF$buf5 asr1.rom_13__0_ NULL ddflop
ADFFSR_106 asr1.rom_12__1_ clk2.clkout_bF$buf20 ~vdd ~_0__bF$buf4 asr1.rom_13__1_ NULL ddflop
ADFFSR_107 asr1.rom_12__2_ clk2.clkout_bF$buf19 ~vdd ~_0__bF$buf3 asr1.rom_13__2_ NULL ddflop
ADFFSR_108 asr1.rom_12__3_ clk2.clkout_bF$buf18 ~vdd ~_0__bF$buf2 asr1.rom_13__3_ NULL ddflop
ADFFSR_109 asr1.rom_12__4_ clk2.clkout_bF$buf17 ~vdd ~_0__bF$buf1 asr1.rom_13__4_ NULL ddflop
ADFFSR_110 asr1.rom_12__5_ clk2.clkout_bF$buf16 ~vdd ~_0__bF$buf0 asr1.rom_13__5_ NULL ddflop