*SPEF "IEEE 1481.1999"
*DESIGN "fir2n"
*DATE "02:16:30 Saturday July 06, 2019"
*VENDOR "unknown"
*PROGRAM "qrouter"
*VERSION "unknown"
*DESIGN_FLOW "qflow"
*DIVIDER /
*DELIMITER :
*BUS_DELIMITER <>
*T_UNIT 1 PS
*C_UNIT 1 FF
*R_UNIT 1 OHM
*L_UNIT 1 HENRY

*NAME_MAP
*1 rom1_data[1]
*2 DFFPOSX1_39
*3 NAND2X1_60
*4 NAND3X1_139
*5 AND2X2_34
*6 AOI22X1_18
*7 AND2X2_31
*8 NAND2X1_86
*9 AOI22X1_17
*10 AOI22X1_25
*11 NAND3X1_199
*12 NAND2X1_97
*13 AND2X2_33
*14 NAND3X1_175
*15 NAND2X1_75
*16 AOI22X1_22
*17 INVX1_135
*18 _923_
*19 INVX1_208
*20 NAND2X1_144
*21 NAND2X1_140
*22 NAND2X1_146
*23 NAND2X1_142
*24 NAND2X1_164
*25 NAND2X1_162
*26 NAND2X1_148
*27 NAND2X1_150
*28 NAND2X1_166
*29 NAND2X1_156
*30 NAND2X1_160
*31 NAND2X1_158
*32 NAND2X1_152
*33 NAND2X1_168
*34 NAND2X1_154
*35 counterup_counter[1]
*36 DFFPOSX1_11
*37 NOR2X1_7
*38 NOR3X1_2
*39 OAI21X1_109
*40 NAND3X1_247
*41 NAND2X1_12
*42 AOI21X1_5
*43 AOI21X1_62
*44 AOI21X1_61
*45 OR2X2_1
*46 OAI21X1_21
*47 NAND3X1_135
*48 AND2X2_28
*49 AND2X2_4
*50 INVX1_4
*51 counterdown_counter[0]
*52 DFFPOSX1_6
*53 OAI21X1_20
*54 INVX1_125
*55 NOR2X1_30
*56 NAND2X1_33
*57 AND2X2_17
*58 NOR3X1_4
*59 AND2X2_15
*60 NOR2X1_36
*61 NAND2X1_38
*62 NOR2X1_61
*63 OAI21X1_19
*64 AOI21X1_4
*65 NAND2X1_54
*66 _0__bF_buf10
*67 BUFX2_41
*68 DFFSR_90
*69 DFFSR_72
*70 DFFSR_111
*71 DFFSR_110
*72 DFFSR_118
*73 DFFSR_80
*74 DFFSR_45
*75 DFFSR_104
*76 DFFSR_61
*77 DFFSR_35
*78 DFFSR_82
*79 DFFSR_74
*80 _0__bF_buf9
*81 BUFX2_42
*82 DFFSR_112
*83 DFFSR_41
*84 DFFSR_33
*85 DFFSR_17
*86 DFFSR_85
*87 DFFSR_37
*88 DFFSR_25
*89 DFFSR_19
*90 DFFSR_3
*91 DFFSR_27
*92 DFFSR_77
*93 DFFSR_57
*94 _0__bF_buf8
*95 BUFX2_43
*96 DFFSR_124
*97 DFFSR_11
*98 DFFSR_34
*99 DFFSR_46
*100 DFFSR_62
*101 DFFSR_67
*102 DFFSR_75
*103 DFFSR_54
*104 DFFSR_1
*105 DFFSR_81
*106 DFFSR_51
*107 DFFSR_23
*108 _0__bF_buf7
*109 BUFX2_44
*110 DFFSR_100
*111 DFFSR_108
*112 DFFSR_92
*113 DFFSR_84
*114 DFFSR_18
*115 DFFSR_71
*116 DFFSR_79
*117 DFFSR_39
*118 DFFSR_116
*119 DFFSR_14
*120 DFFSR_127
*121 DFFSR_7
*122 _0__bF_buf6
*123 BUFX2_45
*124 DFFSR_10
*125 DFFSR_47
*126 DFFSR_63
*127 DFFSR_55
*128 DFFSR_87
*129 DFFSR_94
*130 DFFSR_66
*131 DFFSR_86
*132 DFFSR_78
*133 DFFSR_102
*134 DFFSR_95
*135 DFFSR_15
*136 _0__bF_buf5
*137 BUFX2_46
*138 DFFSR_22
*139 DFFSR_40
*140 DFFSR_58
*141 DFFSR_28
*142 DFFSR_30
*143 DFFSR_26
*144 DFFSR_38
*145 DFFSR_76
*146 DFFSR_24
*147 DFFSR_32
*148 DFFSR_6
*149 DFFSR_2
*150 _0__bF_buf4
*151 BUFX2_47
*152 DFFSR_42
*153 DFFSR_68
*154 DFFSR_16
*155 DFFSR_70
*156 DFFSR_103
*157 DFFSR_119
*158 DFFSR_69
*159 DFFSR_9
*160 DFFSR_43
*161 DFFSR_65
*162 DFFSR_31
*163 DFFSR_56
*164 _225__bF_buf10
*165 BUFX2_60
*166 DFFSR_164
*167 DFFSR_206
*168 DFFSR_222
*169 DFFSR_214
*170 DFFSR_148
*171 DFFSR_212
*172 DFFSR_220
*173 DFFSR_182
*174 DFFSR_204
*175 DFFSR_142
*176 DFFSR_219
*177 DFFSR_230
*178 _225__bF_buf9
*179 BUFX2_61
*180 DFFSR_150
*181 DFFSR_179
*182 DFFSR_171
*183 DFFSR_166
*184 DFFSR_155
*185 DFFSR_174
*186 DFFSR_252
*187 DFFSR_132
*188 DFFSR_131
*189 DFFSR_158
*190 DFFSR_205
*191 DFFSR_136
*192 _225__bF_buf8
*193 BUFX2_62
*194 DFFSR_143
*195 DFFSR_183
*196 DFFSR_193
*197 DFFSR_137
*198 DFFSR_251
*199 DFFSR_233
*200 DFFSR_225
*201 DFFSR_217
*202 DFFSR_209
*203 DFFSR_201
*204 DFFSR_165
*205 DFFSR_149
*206 _225__bF_buf7
*207 BUFX2_63
*208 DFFSR_130
*209 DFFSR_170
*210 DFFSR_134
*211 DFFSR_197
*212 DFFSR_152
*213 DFFSR_192
*214 DFFSR_176
*215 DFFSR_168
*216 DFFSR_186
*217 DFFSR_160
*218 DFFSR_154
*219 DFFSR_162
*220 _225__bF_buf6
*221 BUFX2_64
*222 DFFSR_144
*223 DFFSR_200
*224 DFFSR_232
*225 DFFSR_239
*226 DFFSR_208
*227 DFFSR_173
*228 DFFSR_151
*229 DFFSR_224
*230 DFFSR_216
*231 DFFSR_167
*232 DFFSR_191
*233 DFFSR_175
*234 _225__bF_buf5
*235 BUFX2_65
*236 DFFSR_256
*237 DFFSR_242
*238 DFFSR_250
*239 DFFSR_234
*240 DFFSR_226
*241 DFFSR_133
*242 DFFSR_248
*243 DFFSR_255
*244 DFFSR_210
*245 DFFSR_247
*246 DFFSR_146
*247 DFFSR_218
*248 _225__bF_buf4
*249 BUFX2_66
*250 DFFSR_163
*251 DFFSR_187
*252 DFFSR_223
*253 DFFSR_231
*254 DFFSR_207
*255 DFFSR_157
*256 DFFSR_199
*257 DFFSR_215
*258 DFFSR_253
*259 DFFSR_245
*260 DFFSR_240
*261 DFFSR_237
*262 counterup_counter[2]
*263 DFFPOSX1_12
*264 AOI21X1_5
*265 AOI21X1_62
*266 INVX1_122
*267 NAND3X1_136
*268 NAND3X1_135
*269 NAND3X1_247
*270 NOR3X1_1
*271 NOR2X1_4
*272 NAND2X1_8
*273 AND2X2_3
*274 NOR2X1_2
*275 AND2X2_1
*276 _745_
*277 INVX1_131
*278 OAI21X1_27
*279 NAND3X1_170
*280 OAI21X1_28
*281 OAI21X1_45
*282 OAI21X1_75
*283 OAI22X1_51
*284 OAI21X1_84
*285 NAND3X1_197
*286 OAI21X1_57
*287 NAND2X1_59
*288 NAND3X1_138
*289 OAI21X1_23
*290 _0_
*291 INVX1_59
*292 BUFX2_44
*293 BUFX2_46
*294 BUFX2_50
*295 BUFX2_45
*296 BUFX2_47
*297 BUFX2_43
*298 BUFX2_48
*299 BUFX2_49
*300 BUFX2_42
*301 BUFX2_41
*302 BUFX2_51
*303 _0__bF_buf3
*304 BUFX2_48
*305 DFFSR_89
*306 DFFSR_73
*307 DFFSR_120
*308 DFFSR_128
*309 DFFSR_99
*310 DFFSR_13
*311 DFFSR_107
*312 DFFSR_97
*313 DFFSR_91
*314 DFFSR_83
*315 DFFSR_59
*316 _0__bF_buf2
*317 BUFX2_49
*318 DFFSR_106
*319 DFFSR_114
*320 DFFSR_115
*321 DFFSR_123
*322 DFFSR_105
*323 DFFSR_53
*324 DFFSR_49
*325 DFFSR_113
*326 DFFSR_126
*327 DFFSR_122
*328 DFFSR_121
*329 _0__bF_buf1
*330 BUFX2_50
*331 DFFSR_44
*332 DFFSR_48
*333 DFFSR_12
*334 DFFSR_64
*335 DFFSR_50
*336 DFFSR_36
*337 DFFSR_52
*338 DFFSR_60
*339 DFFSR_4
*340 DFFSR_8
*341 DFFSR_20
*342 _0__bF_buf0
*343 BUFX2_51
*344 DFFSR_98
*345 DFFSR_21
*346 DFFSR_29
*347 DFFSR_117
*348 DFFSR_88
*349 DFFSR_93
*350 DFFSR_125
*351 DFFSR_109
*352 DFFSR_101
*353 DFFSR_96
*354 DFFSR_5
*355 _225_
*356 INVX1_118
*357 BUFX2_63
*358 BUFX2_61
*359 BUFX2_69
*360 BUFX2_67
*361 BUFX2_68
*362 BUFX2_60
*363 BUFX2_66
*364 BUFX2_62
*365 BUFX2_64
*366 BUFX2_65
*367 BUFX2_70
*368 _225__bF_buf3
*369 BUFX2_67
*370 DFFSR_235
*371 DFFSR_156
*372 DFFSR_161
*373 DFFSR_145
*374 DFFSR_238
*375 DFFSR_243
*376 DFFSR_129
*377 DFFSR_246
*378 DFFSR_249
*379 DFFSR_241
*380 DFFSR_153
*381 _225__bF_buf2
*382 BUFX2_68
*383 DFFSR_140
*384 DFFSR_203
*385 DFFSR_228
*386 DFFSR_236
*387 DFFSR_188
*388 DFFSR_172
*389 DFFSR_135
*390 DFFSR_198
*391 DFFSR_196
*392 DFFSR_227
*393 DFFSR_211
*394 _225__bF_buf1
*395 BUFX2_69
*396 DFFSR_254
*397 DFFSR_139
*398 DFFSR_185
*399 DFFSR_177
*400 DFFSR_159
*401 DFFSR_190
*402 DFFSR_195
*403 DFFSR_169
*404 DFFSR_147
*405 DFFSR_180
*406 DFFSR_244
*407 _225__bF_buf0
*408 BUFX2_70
*409 DFFSR_178
*410 DFFSR_181
*411 DFFSR_213
*412 DFFSR_229
*413 DFFSR_221
*414 DFFSR_189
*415 DFFSR_138
*416 DFFSR_194
*417 DFFSR_184
*418 DFFSR_202
*419 DFFSR_141
*420 _20_
*421 NOR2X1_4
*422 NAND3X1_42
*423 NAND2X1_6
*424 NAND2X1_5
*425 NAND3X1_26
*426 NAND3X1_58
*427 AND2X2_5
*428 NAND3X1_10
*429 NAND3X1_50
*430 NAND3X1_2
*431 NAND3X1_18
*432 NAND3X1_34
*433 _245_
*434 NOR2X1_33
*435 NAND3X1_90
*436 NAND2X1_32
*437 NAND2X1_31
*438 NAND3X1_106
*439 AND2X2_18
*440 NAND3X1_98
*441 NAND3X1_122
*442 NAND3X1_74
*443 NAND3X1_82
*444 NAND3X1_114
*445 NAND3X1_66
*446 _13_
*447 NOR2X1_2
*448 NAND2X1_3
*449 NAND3X1_22
*450 NAND3X1_30
*451 NAND2X1_4
*452 NAND3X1_6
*453 NAND3X1_54
*454 NAND3X1_46
*455 NAND3X1_14
*456 NAND3X1_62
*457 NAND3X1_38
*458 counterdown_counter[1]
*459 DFFPOSX1_7
*460 OAI21X1_19
*461 AOI21X1_4
*462 OAI21X1_20
*463 NOR2X1_61
*464 NOR2X1_36
*465 NAND2X1_38
*466 INVX1_126
*467 INVX1_63
*468 AND2X2_17
*469 NOR3X1_4
*470 _238_
*471 NOR2X1_31
*472 NAND3X1_94
*473 NAND3X1_86
*474 NAND3X1_110
*475 NAND2X1_29
*476 NAND2X1_30
*477 NAND3X1_102
*478 NAND3X1_78
*479 NAND3X1_118
*480 NAND3X1_126
*481 NAND3X1_70
*482 sumador_res[2]
*483 DFFPOSX1_45
*484 NAND2X1_63
*485 AOI22X1_18
*486 INVX1_145
*487 AOI22X1_17
*488 AND2X2_31
*489 NAND2X1_92
*490 AND2X2_36
*491 NAND2X1_110
*492 NAND2X1_73
*493 AND2X2_29
*494 sumador_res[3]
*495 DFFPOSX1_46
*496 AND2X2_34
*497 AOI22X1_18
*498 NAND2X1_75
*499 NAND2X1_69
*500 INVX1_146
*501 AND2X2_32
*502 NAND2X1_84
*503 NAND2X1_93
*504 NAND2X1_95
*505 AOI22X1_22
*506 clk_bF_buf6
*507 CLKBUF1_43
*508 DFFPOSX1_6
*509 DFFPOSX1_13
*510 DFFPOSX1_43
*511 DFFPOSX1_10
*512 DFFPOSX1_9
*513 DFFPOSX1_34
*514 DFFPOSX1_36
*515 DFFPOSX1_37
*516 DFFPOSX1_28
*517 clk_bF_buf5
*518 CLKBUF1_44
*519 DFFPOSX1_19
*520 DFFSR_270
*521 DFFSR_267
*522 DFFPOSX1_4
*523 DFFPOSX1_39
*524 DFFPOSX1_5
*525 DFFPOSX1_16
*526 DFFPOSX1_29
*527 DFFPOSX1_32
*528 _29_
*529 AND2X2_3
*530 NAND2X1_10
*531 NAND3X1_27
*532 NAND3X1_59
*533 NAND3X1_11
*534 NAND3X1_19
*535 NAND3X1_3
*536 NAND3X1_35
*537 NAND3X1_51
*538 NAND3X1_43
*539 _254_
*540 AND2X2_16
*541 NAND3X1_91
*542 NAND2X1_36
*543 NAND3X1_107
*544 NAND3X1_67
*545 NAND3X1_83
*546 NAND3X1_99
*547 NAND3X1_123
*548 NAND3X1_115
*549 NAND3X1_75
*550 sumador_res[1]
*551 DFFPOSX1_44
*552 NAND2X1_60
*553 NAND3X1_139
*554 NAND2X1_67
*555 NAND2X1_72
*556 INVX1_134
*557 NAND2X1_105
*558 AOI22X1_17
*559 NAND2X1_71
*560 AND2X2_35
*561 clk_bF_buf4
*562 CLKBUF1_45
*563 DFFPOSX1_50
*564 DFFPOSX1_31
*565 DFFPOSX1_47
*566 DFFPOSX1_23
*567 DFFSR_272
*568 DFFPOSX1_26
*569 DFFPOSX1_33
*570 DFFPOSX1_48
*571 clk_bF_buf3
*572 CLKBUF1_46
*573 DFFPOSX1_41
*574 DFFPOSX1_21
*575 DFFPOSX1_25
*576 DFFPOSX1_49
*577 DFFPOSX1_30
*578 DFFPOSX1_11
*579 DFFPOSX1_7
*580 DFFPOSX1_8
*581 clk_bF_buf2
*582 CLKBUF1_47
*583 DFFPOSX1_42
*584 DFFPOSX1_14
*585 DFFPOSX1_44
*586 DFFSR_269
*587 DFFSR_265
*588 DFFPOSX1_15
*589 DFFSR_266
*590 DFFPOSX1_20
*591 clk_bF_buf1
*592 CLKBUF1_48
*593 DFFPOSX1_12
*594 DFFPOSX1_45
*595 DFFPOSX1_38
*596 DFFPOSX1_24
*597 DFFSR_271
*598 DFFSR_268
*599 DFFPOSX1_17
*600 DFFPOSX1_40
*601 clk_bF_buf0
*602 CLKBUF1_49
*603 DFFPOSX1_27
*604 DFFPOSX1_1
*605 DFFPOSX1_35
*606 DFFPOSX1_3
*607 DFFPOSX1_18
*608 DFFPOSX1_46
*609 DFFPOSX1_22
*610 DFFPOSX1_2
*611 counterup_counter[3]
*612 DFFPOSX1_13
*613 NAND2X1_57
*614 INVX1_121
*615 INVX1_130
*616 INVX1_210
*617 AND2X2_3
*618 NOR2X1_4
*619 NAND2X1_8
*620 INVX1_3
*621 _7_
*622 NAND2X1_1
*623 OAI22X1_10
*624 OAI22X1_19
*625 OAI22X1_4
*626 OAI22X1_22
*627 OAI22X1_16
*628 OAI22X1_7
*629 OAI22X1_13
*630 OAI22X1_1
*631 _9_
*632 NAND2X1_2
*633 OAI22X1_22
*634 OAI22X1_19
*635 OAI22X1_4
*636 OAI22X1_10
*637 OAI22X1_13
*638 OAI22X1_1
*639 OAI22X1_7
*640 OAI22X1_16
*641 _14_
*642 NAND2X1_3
*643 OAI22X1_11
*644 OAI22X1_8
*645 OAI22X1_2
*646 OAI22X1_14
*647 OAI22X1_23
*648 OAI22X1_5
*649 OAI22X1_17
*650 OAI22X1_20
*651 _15_
*652 NAND2X1_4
*653 OAI22X1_5
*654 OAI22X1_23
*655 OAI22X1_14
*656 OAI22X1_17
*657 OAI22X1_20
*658 OAI22X1_8
*659 OAI22X1_2
*660 OAI22X1_11
*661 _21_
*662 NAND2X1_5
*663 OAI22X1_6
*664 OAI22X1_24
*665 OAI22X1_18
*666 OAI22X1_12
*667 OAI22X1_21
*668 OAI22X1_9
*669 OAI22X1_15
*670 OAI22X1_3
*671 _22_
*672 NAND2X1_6
*673 OAI22X1_6
*674 OAI22X1_24
*675 OAI22X1_18
*676 OAI22X1_12
*677 OAI22X1_21
*678 OAI22X1_9
*679 OAI22X1_15
*680 OAI22X1_3
*681 _27_
*682 NOR2X1_5
*683 NAND2X1_17
*684 NAND2X1_25
*685 NAND2X1_15
*686 NAND2X1_13
*687 NAND2X1_9
*688 NAND2X1_21
*689 NAND2X1_19
*690 NAND2X1_23
*691 _30_
*692 NAND2X1_10
*693 OAI21X1_4
*694 OAI21X1_8
*695 OAI21X1_3
*696 OAI21X1_2
*697 OAI21X1_1
*698 OAI21X1_6
*699 OAI21X1_5
*700 OAI21X1_7
*701 _34_
*702 AND2X2_5
*703 NAND2X1_24
*704 NAND2X1_26
*705 NAND2X1_18
*706 NAND2X1_14
*707 NAND2X1_22
*708 NAND2X1_16
*709 NAND2X1_11
*710 NAND2X1_20
*711 _45_
*712 NOR3X1_1
*713 AOI22X1_4
*714 AOI22X1_3
*715 AOI22X1_1
*716 AOI22X1_7
*717 AOI22X1_6
*718 AOI22X1_2
*719 AOI22X1_5
*720 AOI22X1_8
*721 _46_
*722 NOR3X1_2
*723 AOI22X1_4
*724 AOI22X1_3
*725 AOI22X1_1
*726 AOI22X1_7
*727 AOI22X1_6
*728 AOI22X1_2
*729 AOI22X1_5
*730 AOI22X1_8
*731 counterdown_counter[2]
*732 DFFPOSX1_8
*733 AND2X2_16
*734 NAND2X1_34
*735 NOR2X1_33
*736 NOR3X1_3
*737 NOR2X1_31
*738 AND2X2_14
*739 INVX1_127
*740 OAI21X1_20
*741 _232_
*742 NAND2X1_27
*743 OAI22X1_31
*744 OAI22X1_25
*745 OAI22X1_43
*746 OAI22X1_34
*747 OAI22X1_40
*748 OAI22X1_28
*749 OAI22X1_37
*750 OAI22X1_46
*751 _234_
*752 NAND2X1_28
*753 OAI22X1_31
*754 OAI22X1_25
*755 OAI22X1_43
*756 OAI22X1_46
*757 OAI22X1_37
*758 OAI22X1_28
*759 OAI22X1_34
*760 OAI22X1_40
*761 _239_
*762 NAND2X1_29
*763 OAI22X1_32
*764 OAI22X1_41
*765 OAI22X1_35
*766 OAI22X1_44
*767 OAI22X1_47
*768 OAI22X1_26
*769 OAI22X1_29
*770 OAI22X1_38
*771 _240_
*772 NAND2X1_30
*773 OAI22X1_29
*774 OAI22X1_38
*775 OAI22X1_47
*776 OAI22X1_44
*777 OAI22X1_26
*778 OAI22X1_32
*779 OAI22X1_41
*780 OAI22X1_35
*781 _246_
*782 NAND2X1_31
*783 OAI22X1_33
*784 OAI22X1_42
*785 OAI22X1_27
*786 OAI22X1_45
*787 OAI22X1_36
*788 OAI22X1_48
*789 OAI22X1_30
*790 OAI22X1_39
*791 _247_
*792 NAND2X1_32
*793 OAI22X1_33
*794 OAI22X1_42
*795 OAI22X1_27
*796 OAI22X1_45
*797 OAI22X1_36
*798 OAI22X1_48
*799 OAI22X1_30
*800 OAI22X1_39
*801 _252_
*802 NOR2X1_34
*803 NAND2X1_43
*804 NAND2X1_47
*805 NAND2X1_41
*806 NAND2X1_35
*807 NAND2X1_45
*808 NAND2X1_49
*809 NAND2X1_51
*810 NAND2X1_39
*811 _255_
*812 NAND2X1_36
*813 OAI21X1_12
*814 OAI21X1_14
*815 OAI21X1_11
*816 OAI21X1_9
*817 OAI21X1_13
*818 OAI21X1_15
*819 OAI21X1_16
*820 OAI21X1_10
*821 _259_
*822 AND2X2_18
*823 NAND2X1_48
*824 NAND2X1_44
*825 NAND2X1_37
*826 NAND2X1_42
*827 NAND2X1_46
*828 NAND2X1_50
*829 NAND2X1_40
*830 NAND2X1_52
*831 _270_
*832 NOR3X1_3
*833 AOI22X1_11
*834 AOI22X1_14
*835 AOI22X1_12
*836 AOI22X1_9
*837 AOI22X1_15
*838 AOI22X1_13
*839 AOI22X1_10
*840 AOI22X1_16
*841 _271_
*842 NOR3X1_4
*843 AOI22X1_10
*844 AOI22X1_13
*845 AOI22X1_16
*846 AOI22X1_15
*847 AOI22X1_9
*848 AOI22X1_12
*849 AOI22X1_11
*850 AOI22X1_14
*851 sumador_res[0]
*852 DFFPOSX1_43
*853 NAND3X1_137
*854 NAND2X1_82
*855 AND2X2_38
*856 NAND2X1_104
*857 INVX1_133
*858 NAND2X1_66
*859 NAND2X1_62
*860 NAND2X1_58
*861 sumador_res[4]
*862 DFFPOSX1_47
*863 NAND2X1_96
*864 NAND3X1_157
*865 NAND2X1_76
*866 NAND2X1_86
*867 NAND3X1_175
*868 NAND2X1_109
*869 AOI22X1_22
*870 AND2X2_33
*871 _854_
*872 INVX1_189
*873 DFFSR_262
*874 DFFSR_260
*875 DFFSR_258
*876 DFFSR_264
*877 DFFSR_263
*878 DFFSR_257
*879 DFFSR_259
*880 DFFSR_261
*881 _872_
*882 INVX1_198
*883 DFFSR_270
*884 DFFSR_267
*885 DFFSR_269
*886 DFFSR_265
*887 DFFSR_266
*888 DFFSR_271
*889 DFFSR_268
*890 DFFSR_272
*891 _890_
*892 INVX1_207
*893 DFFSR_273
*894 DFFSR_276
*895 DFFSR_277
*896 DFFSR_274
*897 DFFSR_278
*898 DFFSR_280
*899 DFFSR_279
*900 DFFSR_275
*901 clk2_clkout_hier0_bF_buf5
*902 BUFX2_1
*903 CLKBUF1_9
*904 CLKBUF1_38
*905 CLKBUF1_41
*906 CLKBUF1_13
*907 CLKBUF1_28
*908 CLKBUF1_37
*909 CLKBUF1_4
*910 clk2_clkout_hier0_bF_buf4
*911 BUFX2_2
*912 CLKBUF1_16
*913 CLKBUF1_30
*914 CLKBUF1_24
*915 CLKBUF1_42
*916 CLKBUF1_35
*917 CLKBUF1_23
*918 CLKBUF1_1
*919 clk2_clkout_hier0_bF_buf3
*920 BUFX2_3
*921 CLKBUF1_19
*922 CLKBUF1_18
*923 CLKBUF1_32
*924 CLKBUF1_15
*925 CLKBUF1_21
*926 CLKBUF1_31
*927 CLKBUF1_25
*928 clk2_clkout_hier0_bF_buf2
*929 BUFX2_4
*930 CLKBUF1_5
*931 CLKBUF1_26
*932 CLKBUF1_33
*933 CLKBUF1_8
*934 CLKBUF1_36
*935 CLKBUF1_11
*936 CLKBUF1_17
*937 clk2_clkout_hier0_bF_buf1
*938 BUFX2_5
*939 CLKBUF1_20
*940 CLKBUF1_14
*941 CLKBUF1_34
*942 CLKBUF1_2
*943 CLKBUF1_10
*944 CLKBUF1_6
*945 CLKBUF1_12
*946 clk2_clkout_hier0_bF_buf0
*947 BUFX2_6
*948 CLKBUF1_40
*949 CLKBUF1_29
*950 CLKBUF1_22
*951 CLKBUF1_27
*952 CLKBUF1_39
*953 CLKBUF1_3
*954 CLKBUF1_7
*955 clk2_clkout_bF_buf41
*956 CLKBUF1_1
*957 DFFSR_248
*958 DFFSR_27
*959 DFFSR_3
*960 DFFSR_255
*961 DFFSR_210
*962 DFFSR_218
*963 DFFSR_259
*964 clk2_clkout_bF_buf40
*965 CLKBUF1_2
*966 DFFSR_241
*967 DFFSR_153
*968 DFFSR_233
*969 DFFSR_249
*970 DFFSR_161
*971 DFFSR_235
*972 DFFSR_156
*973 clk2_clkout_bF_buf39
*974 CLKBUF1_3
*975 DFFSR_130
*976 DFFSR_162
*977 DFFSR_154
*978 DFFSR_146
*979 DFFSR_247
*980 DFFSR_186
*981 DFFSR_170
*982 clk2_clkout_bF_buf38
*983 CLKBUF1_4
*984 DFFSR_260
*985 DFFSR_258
*986 DFFSR_264
*987 DFFSR_4
*988 DFFSR_52
*989 DFFSR_60
*990 DFFSR_20
*991 clk2_clkout_bF_buf37
*992 CLKBUF1_5
*993 DFFSR_65
*994 DFFSR_119
*995 DFFSR_111
*996 DFFSR_103
*997 DFFSR_70
*998 DFFSR_72
*999 DFFSR_127
*1000 clk2_clkout_bF_buf36
*1001 CLKBUF1_6
*1002 DFFSR_138
*1003 DFFSR_194
*1004 DFFSR_237
*1005 DFFSR_253
*1006 DFFSR_245
*1007 DFFSR_240
*1008 DFFSR_239
*1009 clk2_clkout_bF_buf35
*1010 CLKBUF1_7
*1011 DFFSR_33
*1012 DFFSR_41
*1013 DFFSR_77
*1014 DFFSR_104
*1015 DFFSR_17
*1016 DFFSR_19
*1017 DFFSR_25
*1018 clk2_clkout_bF_buf34
*1019 CLKBUF1_8
*1020 DFFSR_39
*1021 DFFSR_116
*1022 DFFSR_263
*1023 DFFSR_124
*1024 DFFSR_11
*1025 DFFSR_51
*1026 DFFSR_81
*1027 clk2_clkout_bF_buf33
*1028 CLKBUF1_9
*1029 DFFSR_16
*1030 DFFSR_31
*1031 DFFSR_7
*1032 DFFSR_68
*1033 DFFSR_42
*1034 DFFSR_56
*1035 DFFSR_38
*1036 clk2_clkout_bF_buf32
*1037 CLKBUF1_10
*1038 DFFSR_191
*1039 DFFSR_167
*1040 DFFSR_175
*1041 DFFSR_216
*1042 DFFSR_224
*1043 DFFSR_165
*1044 DFFSR_149
*1045 clk2_clkout_bF_buf31
*1046 CLKBUF1_11
*1047 DFFSR_140
*1048 DFFSR_211
*1049 DFFSR_243
*1050 DFFSR_129
*1051 DFFSR_169
*1052 DFFSR_195
*1053 DFFSR_246
*1054 clk2_clkout_bF_buf30
*1055 CLKBUF1_12
*1056 DFFSR_221
*1057 DFFSR_213
*1058 DFFSR_181
*1059 DFFSR_178
*1060 DFFSR_202
*1061 DFFSR_229
*1062 DFFSR_189
*1063 clk2_clkout_bF_buf29
*1064 CLKBUF1_13
*1065 DFFSR_32
*1066 DFFSR_8
*1067 DFFSR_28
*1068 DFFSR_58
*1069 DFFSR_40
*1070 DFFSR_12
*1071 DFFSR_48
*1072 clk2_clkout_bF_buf28
*1073 CLKBUF1_14
*1074 DFFSR_232
*1075 DFFSR_144
*1076 DFFSR_200
*1077 DFFSR_208
*1078 DFFSR_173
*1079 DFFSR_151
*1080 DFFSR_157
*1081 clk2_clkout_bF_buf27
*1082 CLKBUF1_15
*1083 DFFSR_273
*1084 DFFSR_142
*1085 DFFSR_204
*1086 DFFSR_276
*1087 DFFSR_277
*1088 DFFSR_274
*1089 DFFSR_278
*1090 clk2_clkout_bF_buf26
*1091 CLKBUF1_16
*1092 DFFSR_118
*1093 DFFSR_35
*1094 DFFSR_61
*1095 DFFSR_43
*1096 DFFSR_57
*1097 DFFSR_112
*1098 DFFSR_69
*1099 clk2_clkout_bF_buf25
*1100 CLKBUF1_17
*1101 DFFSR_244
*1102 DFFSR_147
*1103 DFFSR_190
*1104 DFFSR_139
*1105 DFFSR_185
*1106 DFFSR_254
*1107 DFFSR_174
*1108 clk2_clkout_bF_buf24
*1109 CLKBUF1_18
*1110 DFFSR_23
*1111 DFFSR_59
*1112 DFFSR_120
*1113 DFFSR_89
*1114 DFFSR_73
*1115 DFFSR_252
*1116 DFFSR_132
*1117 clk2_clkout_bF_buf23
*1118 CLKBUF1_19
*1119 DFFSR_1
*1120 DFFSR_257
*1121 DFFSR_67
*1122 DFFSR_188
*1123 DFFSR_172
*1124 DFFSR_180
*1125 DFFSR_203
*1126 clk2_clkout_bF_buf22
*1127 CLKBUF1_20
*1128 DFFSR_177
*1129 DFFSR_207
*1130 DFFSR_159
*1131 DFFSR_251
*1132 DFFSR_137
*1133 DFFSR_143
*1134 DFFSR_199
*1135 clk2_clkout_bF_buf21
*1136 CLKBUF1_21
*1137 DFFSR_198
*1138 DFFSR_196
*1139 DFFSR_227
*1140 DFFSR_164
*1141 DFFSR_206
*1142 DFFSR_228
*1143 DFFSR_236
*1144 clk2_clkout_bF_buf20
*1145 CLKBUF1_22
*1146 DFFSR_179
*1147 DFFSR_150
*1148 DFFSR_184
*1149 DFFSR_158
*1150 DFFSR_205
*1151 DFFSR_166
*1152 DFFSR_155
*1153 clk
*1154 CLKBUF1_46
*1155 CLKBUF1_47
*1156 CLKBUF1_45
*1157 CLKBUF1_48
*1158 CLKBUF1_44
*1159 CLKBUF1_49
*1160 CLKBUF1_43
*1161 rst_bF_buf5
*1162 BUFX2_35
*1163 INVX1_59
*1164 AOI21X1_54
*1165 INVX1_207
*1166 AOI21X1_51
*1167 AOI21X1_59
*1168 INVX1_129
*1169 NOR2X1_75
*1170 clk2_clkout
*1171 DFFPOSX1_1
*1172 BUFX2_3
*1173 BUFX2_4
*1174 BUFX2_1
*1175 BUFX2_6
*1176 BUFX2_5
*1177 BUFX2_2
*1178 clk2_clkout_bF_buf19
*1179 CLKBUF1_23
*1180 DFFSR_88
*1181 DFFSR_37
*1182 DFFSR_85
*1183 DFFSR_96
*1184 DFFSR_250
*1185 DFFSR_256
*1186 clk2_clkout_bF_buf18
*1187 CLKBUF1_24
*1188 DFFSR_29
*1189 DFFSR_117
*1190 DFFSR_125
*1191 DFFSR_109
*1192 DFFSR_101
*1193 DFFSR_93
*1194 clk2_clkout_bF_buf17
*1195 CLKBUF1_25
*1196 DFFSR_222
*1197 DFFSR_214
*1198 DFFSR_219
*1199 DFFSR_230
*1200 DFFSR_238
*1201 DFFSR_145
*1202 clk2_clkout_bF_buf16
*1203 CLKBUF1_26
*1204 DFFSR_107
*1205 DFFSR_13
*1206 DFFSR_9
*1207 DFFSR_53
*1208 DFFSR_49
*1209 DFFSR_105
*1210 clk2_clkout_bF_buf15
*1211 CLKBUF1_27
*1212 DFFSR_136
*1213 DFFSR_114
*1214 DFFSR_106
*1215 DFFSR_115
*1216 DFFSR_123
*1217 DFFSR_131
*1218 clk2_clkout_bF_buf14
*1219 CLKBUF1_28
*1220 DFFSR_262
*1221 DFFSR_6
*1222 DFFSR_2
*1223 DFFSR_279
*1224 DFFSR_275
*1225 DFFSR_24
*1226 clk2_clkout_bF_buf13
*1227 CLKBUF1_29
*1228 DFFSR_187
*1229 DFFSR_171
*1230 DFFSR_163
*1231 DFFSR_215
*1232 DFFSR_223
*1233 DFFSR_231
*1234 clk2_clkout_bF_buf12
*1235 CLKBUF1_30
*1236 DFFSR_133
*1237 DFFSR_261
*1238 DFFSR_5
*1239 DFFSR_226
*1240 DFFSR_234
*1241 DFFSR_242
*1242 clk2_clkout_bF_buf11
*1243 CLKBUF1_31
*1244 DFFSR_148
*1245 DFFSR_212
*1246 DFFSR_220
*1247 DFFSR_182
*1248 DFFSR_62
*1249 DFFSR_135
*1250 clk2_clkout_bF_buf10
*1251 CLKBUF1_32
*1252 DFFSR_34
*1253 OAI21X1_18
*1254 DFFSR_46
*1255 AOI21X1_3
*1256 DFFSR_75
*1257 DFFSR_54
*1258 clk2_clkout_bF_buf9
*1259 CLKBUF1_33
*1260 DFFSR_79
*1261 DFFSR_71
*1262 DFFSR_18
*1263 DFFSR_100
*1264 DFFSR_280
*1265 DFFSR_108
*1266 clk2_clkout_bF_buf8
*1267 CLKBUF1_34
*1268 DFFSR_201
*1269 DFFSR_183
*1270 DFFSR_193
*1271 DFFSR_225
*1272 DFFSR_209
*1273 DFFSR_217
*1274 clk2_clkout_bF_buf7
*1275 CLKBUF1_35
*1276 DFFSR_90
*1277 DFFSR_98
*1278 DFFSR_21
*1279 DFFSR_74
*1280 DFFSR_82
*1281 DFFSR_66
*1282 clk2_clkout_bF_buf6
*1283 CLKBUF1_36
*1284 DFFSR_83
*1285 DFFSR_99
*1286 DFFSR_91
*1287 DFFSR_128
*1288 DFFSR_97
*1289 DFFSR_14
*1290 clk2_clkout_bF_buf5
*1291 CLKBUF1_37
*1292 DFFSR_36
*1293 DFFSR_50
*1294 DFFSR_44
*1295 DFFSR_64
*1296 DFFSR_15
*1297 DFFSR_55
*1298 clk2_clkout_bF_buf4
*1299 CLKBUF1_38
*1300 DFFSR_94
*1301 DFFSR_95
*1302 DFFSR_87
*1303 DFFSR_63
*1304 DFFSR_47
*1305 DFFSR_10
*1306 clk2_clkout_bF_buf3
*1307 CLKBUF1_39
*1308 DFFSR_152
*1309 DFFSR_168
*1310 DFFSR_176
*1311 DFFSR_192
*1312 DFFSR_160
*1313 DFFSR_141
*1314 clk2_clkout_bF_buf2
*1315 CLKBUF1_40
*1316 DFFSR_113
*1317 DFFSR_126
*1318 DFFSR_122
*1319 DFFSR_121
*1320 DFFSR_134
*1321 DFFSR_197
*1322 clk2_clkout_bF_buf1
*1323 CLKBUF1_41
*1324 DFFSR_26
*1325 DFFSR_76
*1326 DFFSR_30
*1327 DFFSR_22
*1328 DFFSR_84
*1329 DFFSR_92
*1330 clk2_clkout_bF_buf0
*1331 CLKBUF1_42
*1332 DFFSR_110
*1333 DFFSR_102
*1334 DFFSR_86
*1335 DFFSR_78
*1336 DFFSR_80
*1337 DFFSR_45
*1338 _36__bF_buf3
*1339 BUFX2_15
*1340 NAND3X1_54
*1341 NAND3X1_46
*1342 NAND3X1_62
*1343 NAND3X1_34
*1344 NAND3X1_33
*1345 NAND3X1_14
*1346 _36__bF_buf2
*1347 BUFX2_16
*1348 NAND3X1_17
*1349 NAND3X1_6
*1350 NAND3X1_2
*1351 NAND3X1_18
*1352 NAND3X1_38
*1353 NAND3X1_1
*1354 _36__bF_buf1
*1355 BUFX2_17
*1356 NAND3X1_49
*1357 NAND3X1_57
*1358 NAND3X1_25
*1359 NAND3X1_26
*1360 NAND3X1_58
*1361 NAND3X1_9
*1362 _36__bF_buf0
*1363 BUFX2_18
*1364 NAND3X1_50
*1365 NAND3X1_10
*1366 NAND3X1_22
*1367 NAND3X1_41
*1368 NAND3X1_42
*1369 NAND3X1_30
*1370 _261__bF_buf3
*1371 BUFX2_27
*1372 NAND3X1_65
*1373 NAND3X1_66
*1374 NAND3X1_94
*1375 NAND3X1_86
*1376 NAND3X1_89
*1377 NAND3X1_110
*1378 _261__bF_buf2
*1379 BUFX2_28
*1380 NAND3X1_114
*1381 NAND3X1_118
*1382 NAND3X1_126
*1383 NAND3X1_113
*1384 NAND3X1_70
*1385 NAND3X1_82
*1386 _261__bF_buf1
*1387 BUFX2_29
*1388 NAND3X1_81
*1389 NAND3X1_98
*1390 NAND3X1_102
*1391 NAND3X1_106
*1392 NAND3X1_90
*1393 NAND3X1_105
*1394 _261__bF_buf0
*1395 BUFX2_30
*1396 NAND3X1_97
*1397 NAND3X1_78
*1398 NAND3X1_122
*1399 NAND3X1_74
*1400 NAND3X1_73
*1401 NAND3X1_121
*1402 rst
*1403 BUFX2_36
*1404 BUFX2_39
*1405 BUFX2_38
*1406 BUFX2_35
*1407 BUFX2_40
*1408 BUFX2_37
*1409 rst_bF_buf4
*1410 BUFX2_36
*1411 AOI21X1_58
*1412 AOI21X1_49
*1413 AOI21X1_57
*1414 AOI21X1_47
*1415 AOI21X1_50
*1416 NOR2X1_62
*1417 rst_bF_buf3
*1418 BUFX2_37
*1419 AOI21X1_52
*1420 INVX1_189
*1421 INVX1_209
*1422 AOI21X1_56
*1423 NOR3X1_6
*1424 AOI21X1_55
*1425 rst_bF_buf2
*1426 BUFX2_38
*1427 INVX1_123
*1428 NOR2X1_59
*1429 INVX1_198
*1430 AOI21X1_6
*1431 INVX1_124
*1432 AOI21X1_3
*1433 rst_bF_buf1
*1434 BUFX2_39
*1435 NOR2X1_74
*1436 AOI21X1_2
*1437 NOR2X1_79
*1438 INVX1_119
*1439 AOI21X1_48
*1440 AOI21X1_46
*1441 rst_bF_buf0
*1442 BUFX2_40
*1443 AOI21X1_60
*1444 AOI21X1_53
*1445 INVX1_212
*1446 AOI21X1_4
*1447 INVX1_118
*1448 AOI21X1_69
*1449 counterdown_counter[3]
*1450 DFFPOSX1_9
*1451 NAND2X1_55
*1452 INVX1_128
*1453 AND2X2_16
*1454 NAND2X1_34
*1455 NOR2X1_33
*1456 INVX1_62
*1457 rom1_data[2]
*1458 DFFPOSX1_40
*1459 NAND2X1_62
*1460 NAND2X1_67
*1461 NAND2X1_73
*1462 NAND2X1_84
*1463 INVX1_175
*1464 NAND2X1_96
*1465 rom1_data[3]
*1466 DFFPOSX1_41
*1467 NAND2X1_93
*1468 NAND2X1_109
*1469 AND2X2_36
*1470 INVX1_159
*1471 NAND2X1_72
*1472 NAND2X1_66
*1473 _495_
*1474 NAND3X1_153
*1475 AOI21X1_17
*1476 NAND3X1_155
*1477 INVX1_149
*1478 NOR3X1_5
*1479 OAI21X1_42
*1480 NAND3X1_154
*1481 _966_
*1482 INVX1_212
*1483 NAND2X1_182
*1484 OAI21X1_118
*1485 OAI21X1_115
*1486 OAI21X1_114
*1487 OAI21X1_111
*1488 OAI21X1_112
*1489 counterup_counter[0_bF_buf3]
*1490 BUFX2_7
*1491 NOR2X1_62
*1492 NAND3X1_135
*1493 AOI21X1_62
*1494 AND2X2_2
*1495 NOR2X1_7
*1496 counterup_counter[0_bF_buf2]
*1497 BUFX2_8
*1498 AND2X2_28
*1499 NOR2X1_75
*1500 NAND2X1_12
*1501 NAND3X1_247
*1502 NOR2X1_1
*1503 _4__bF_buf3
*1504 BUFX2_11
*1505 NAND3X1_41
*1506 NAND2X1_2
*1507 NAND3X1_21
*1508 NAND3X1_5
*1509 NAND3X1_17
*1510 _4__bF_buf2
*1511 BUFX2_12
*1512 NAND2X1_1
*1513 NAND3X1_29
*1514 NAND3X1_9
*1515 NAND3X1_57
*1516 NAND3X1_25
*1517 _33__bF_buf3
*1518 BUFX2_19
*1519 AND2X2_5
*1520 NAND3X1_53
*1521 NAND3X1_45
*1522 NAND3X1_13
*1523 NAND3X1_61
*1524 _229__bF_buf3
*1525 BUFX2_23
*1526 NAND3X1_65
*1527 NAND3X1_93
*1528 NAND3X1_85
*1529 NAND3X1_89
*1530 NAND3X1_109
*1531 _229__bF_buf2
*1532 BUFX2_24
*1533 NAND3X1_69
*1534 NAND3X1_117
*1535 NAND3X1_113
*1536 NAND3X1_125
*1537 NAND3X1_77
*1538 _258__bF_buf3
*1539 BUFX2_31
*1540 NAND3X1_117
*1541 NAND3X1_83
*1542 NAND3X1_69
*1543 NAND3X1_125
*1544 NAND3X1_77
*1545 mac1_reset_bF_buf3
*1546 BUFX2_52
*1547 INVX1_131
*1548 NAND2X1_129
*1549 OAI21X1_98
*1550 OAI21X1_99
*1551 NAND2X1_130
*1552 mac1_reset_bF_buf2
*1553 BUFX2_53
*1554 OAI21X1_95
*1555 NAND2X1_126
*1556 OAI21X1_35
*1557 NAND2X1_128
*1558 OAI21X1_97
*1559 mac1_reset_bF_buf1
*1560 BUFX2_54
*1561 NAND3X1_155
*1562 NAND2X1_124
*1563 NAND2X1_125
*1564 OAI21X1_94
*1565 OAI21X1_93
*1566 mac1_reset_bF_buf0
*1567 BUFX2_55
*1568 NAND2X1_127
*1569 OAI21X1_96
*1570 OAI21X1_100
*1571 NAND2X1_131
*1572 AOI21X1_43
*1573 rom1_data[0_bF_buf3]
*1574 BUFX2_56
*1575 NAND2X1_58
*1576 AOI22X1_18
*1577 NAND3X1_174
*1578 AOI22X1_17
*1579 NAND2X1_106
*1580 clk2_div[0]
*1581 DFFPOSX1_2
*1582 NOR2X1_59
*1583 AOI21X1_1
*1584 OAI21X1_17
*1585 NAND3X1_129
*1586 NAND2X1_53
*1587 _795_
*1588 INVX1_134
*1589 OAI21X1_64
*1590 NOR2X1_69
*1591 OAI21X1_68
*1592 OAI22X1_49
*1593 OAI21X1_48
*1594 rom1_data[4]
*1595 DFFPOSX1_42
*1596 NAND2X1_71
*1597 AND2X2_35
*1598 INVX1_150
*1599 NAND2X1_92
*1600 NAND2X1_95
*1601 _543_
*1602 NAND3X1_167
*1603 AOI21X1_25
*1604 NAND3X1_194
*1605 AOI21X1_19
*1606 NAND3X1_168
*1607 NAND2X1_79
*1608 sumador_res[5]
*1609 DFFPOSX1_48
*1610 AOI22X1_25
*1611 NAND2X1_87
*1612 NAND3X1_174
*1613 AND2X2_37
*1614 INVX1_161
*1615 _580_
*1616 NAND2X1_86
*1617 NAND3X1_174
*1618 OAI22X1_50
*1619 AND2X2_39
*1620 NOR2X1_70
*1621 OAI21X1_50
*1622 _596_
*1623 NAND3X1_183
*1624 OAI21X1_61
*1625 AOI22X1_24
*1626 NAND3X1_198
*1627 AOI21X1_22
*1628 NAND3X1_209
*1629 _597_
*1630 NAND3X1_184
*1631 AOI21X1_31
*1632 NAND3X1_209
*1633 NAND3X1_198
*1634 AOI21X1_22
*1635 AOI22X1_24
*1636 _614_
*1637 NAND3X1_191
*1638 NAND3X1_222
*1639 NAND3X1_220
*1640 NAND2X1_90
*1641 AOI21X1_24
*1642 NAND3X1_195
*1643 _685_
*1644 NAND3X1_208
*1645 NAND3X1_218
*1646 NAND3X1_213
*1647 INVX1_171
*1648 XOR2X1_8
*1649 NAND3X1_243
*1650 counterup_counter[0]
*1651 DFFPOSX1_10
*1652 BUFX2_7
*1653 BUFX2_10
*1654 BUFX2_9
*1655 BUFX2_8
*1656 counterup_counter[0_bF_buf1]
*1657 BUFX2_9
*1658 OAI21X1_21
*1659 NOR3X1_2
*1660 NAND2X1_7
*1661 OAI21X1_109
*1662 counterup_counter[0_bF_buf0]
*1663 BUFX2_10
*1664 AOI21X1_61
*1665 OR2X2_1
*1666 AOI21X1_5
*1667 AND2X2_4
*1668 _4_
*1669 AND2X2_1
*1670 BUFX2_12
*1671 BUFX2_13
*1672 BUFX2_14
*1673 BUFX2_11
*1674 _4__bF_buf1
*1675 BUFX2_13
*1676 NAND3X1_49
*1677 NAND3X1_53
*1678 NAND3X1_45
*1679 NAND3X1_13
*1680 _4__bF_buf0
*1681 BUFX2_14
*1682 NAND3X1_61
*1683 NAND3X1_33
*1684 NAND3X1_37
*1685 NAND3X1_1
*1686 _36_
*1687 NOR2X1_7
*1688 BUFX2_17
*1689 BUFX2_15
*1690 BUFX2_18
*1691 BUFX2_16
*1692 _33_
*1693 AND2X2_4
*1694 BUFX2_21
*1695 BUFX2_20
*1696 BUFX2_22
*1697 BUFX2_19
*1698 _33__bF_buf2
*1699 BUFX2_20
*1700 NAND3X1_37
*1701 NAND3X1_35
*1702 NAND3X1_19
*1703 NAND3X1_3
*1704 _33__bF_buf1
*1705 BUFX2_21
*1706 NAND3X1_59
*1707 NAND3X1_29
*1708 NAND3X1_27
*1709 NAND3X1_11
*1710 _33__bF_buf0
*1711 BUFX2_22
*1712 NAND3X1_21
*1713 NAND3X1_51
*1714 NAND3X1_43
*1715 NAND3X1_5
*1716 _229_
*1717 AND2X2_14
*1718 BUFX2_24
*1719 BUFX2_23
*1720 BUFX2_25
*1721 BUFX2_26
*1722 _229__bF_buf1
*1723 BUFX2_25
*1724 NAND3X1_81
*1725 NAND3X1_105
*1726 NAND2X1_27
*1727 NAND2X1_28
*1728 _229__bF_buf0
*1729 BUFX2_26
*1730 NAND3X1_97
*1731 NAND3X1_101
*1732 NAND3X1_73
*1733 NAND3X1_121
*1734 _261_
*1735 NOR2X1_36
*1736 BUFX2_29
*1737 BUFX2_30
*1738 BUFX2_28
*1739 BUFX2_27
*1740 _258_
*1741 AND2X2_17
*1742 BUFX2_33
*1743 BUFX2_32
*1744 BUFX2_34
*1745 BUFX2_31
*1746 _258__bF_buf2
*1747 BUFX2_32
*1748 AND2X2_18
*1749 NAND3X1_99
*1750 NAND3X1_107
*1751 NAND3X1_91
*1752 _258__bF_buf1
*1753 BUFX2_33
*1754 NAND3X1_101
*1755 NAND3X1_115
*1756 NAND3X1_75
*1757 NAND3X1_123
*1758 _258__bF_buf0
*1759 BUFX2_34
*1760 NAND3X1_85
*1761 NAND3X1_93
*1762 NAND3X1_109
*1763 NAND3X1_67
*1764 mac1_reset
*1765 DFFPOSX1_22
*1766 BUFX2_55
*1767 BUFX2_54
*1768 BUFX2_53
*1769 BUFX2_52
*1770 rom1_data[0]
*1771 DFFPOSX1_38
*1772 BUFX2_57
*1773 BUFX2_59
*1774 BUFX2_58
*1775 BUFX2_56
*1776 rom1_data[0_bF_buf2]
*1777 BUFX2_57
*1778 NAND2X1_63
*1779 NAND2X1_76
*1780 INVX1_132
*1781 NAND2X1_87
*1782 rom1_data[0_bF_buf1]
*1783 BUFX2_58
*1784 NAND3X1_157
*1785 AOI22X1_22
*1786 AND2X2_32
*1787 NAND3X1_137
*1788 rom1_data[0_bF_buf0]
*1789 BUFX2_59
*1790 AND2X2_29
*1791 AOI22X1_25
*1792 AND2X2_37
*1793 NAND2X1_69
*1794 _8_
*1795 NOR2X1_1
*1796 NAND2X1_10
*1797 NAND2X1_6
*1798 NAND2X1_2
*1799 NAND2X1_4
*1800 _233_
*1801 NOR2X1_30
*1802 NAND2X1_28
*1803 NAND2X1_32
*1804 NAND2X1_36
*1805 NAND2X1_30
*1806 clk2_div[1]
*1807 DFFPOSX1_3
*1808 OAI21X1_17
*1809 NAND3X1_129
*1810 NAND2X1_53
*1811 AOI21X1_1
*1812 _734_
*1813 NAND2X1_58
*1814 OAI21X1_22
*1815 NOR2X1_66
*1816 OAI21X1_25
*1817 XOR2X1_1
*1818 _798_
*1819 NAND2X1_60
*1820 NOR2X1_65
*1821 OAI21X1_25
*1822 NOR2X1_66
*1823 OAI21X1_22
*1824 _820_
*1825 NAND3X1_141
*1826 INVX1_142
*1827 NAND2X1_65
*1828 AOI21X1_7
*1829 NAND3X1_142
*1830 _833_
*1831 NAND2X1_66
*1832 INVX1_143
*1833 OAI21X1_37
*1834 OAI21X1_40
*1835 NAND3X1_152
*1836 _836_
*1837 NAND2X1_67
*1838 OAI21X1_38
*1839 NAND3X1_144
*1840 NAND3X1_146
*1841 INVX1_144
*1842 _839_
*1843 AND2X2_32
*1844 AOI22X1_21
*1845 NAND2X1_74
*1846 OAI21X1_32
*1847 NAND2X1_68
*1848 _841_
*1849 INVX1_145
*1850 OAI21X1_32
*1851 OAI21X1_31
*1852 OAI21X1_47