*SPICE netlist created from BLIF module fir2n by blif2BSpice
.include /usr/local/share/qflow/tech/osu050/osu050_stdcells.sp
.subckt fir2n vdd gnd clk rst din[0] din[1] din[2] din[3] din[4] din[5] din[6] din[7] dout[0] dout[1] dout[2] dout[3] dout[4] dout[5] dout[6] dout[7] 
XBUFX2_1 vdd gnd clk2.clkout clk2.clkout_hier0_bF$buf5 BUFX2
XBUFX2_2 vdd gnd clk2.clkout clk2.clkout_hier0_bF$buf4 BUFX2
XBUFX2_3 vdd gnd clk2.clkout clk2.clkout_hier0_bF$buf3 BUFX2
XBUFX2_4 vdd gnd clk2.clkout clk2.clkout_hier0_bF$buf2 BUFX2
XBUFX2_5 vdd gnd clk2.clkout clk2.clkout_hier0_bF$buf1 BUFX2
XBUFX2_6 vdd gnd clk2.clkout clk2.clkout_hier0_bF$buf0 BUFX2
XBUFX2_7 vdd gnd counterup.counter[0] counterup.counter[0_bF$buf3] BUFX2
XBUFX2_8 vdd gnd counterup.counter[0] counterup.counter[0_bF$buf2] BUFX2
XBUFX2_9 vdd gnd counterup.counter[0] counterup.counter[0_bF$buf1] BUFX2
XBUFX2_10 vdd gnd counterup.counter[0] counterup.counter[0_bF$buf0] BUFX2
XCLKBUF1_1 clk2.clkout_hier0_bF$buf4 vdd gnd clk2.clkout_bF$buf41 CLKBUF1
XCLKBUF1_2 clk2.clkout_hier0_bF$buf1 vdd gnd clk2.clkout_bF$buf40 CLKBUF1
XCLKBUF1_3 clk2.clkout_hier0_bF$buf0 vdd gnd clk2.clkout_bF$buf39 CLKBUF1
XCLKBUF1_4 clk2.clkout_hier0_bF$buf5 vdd gnd clk2.clkout_bF$buf38 CLKBUF1
XCLKBUF1_5 clk2.clkout_hier0_bF$buf2 vdd gnd clk2.clkout_bF$buf37 CLKBUF1
XCLKBUF1_6 clk2.clkout_hier0_bF$buf1 vdd gnd clk2.clkout_bF$buf36 CLKBUF1
XCLKBUF1_7 clk2.clkout_hier0_bF$buf0 vdd gnd clk2.clkout_bF$buf35 CLKBUF1
XCLKBUF1_8 clk2.clkout_hier0_bF$buf2 vdd gnd clk2.clkout_bF$buf34 CLKBUF1
XCLKBUF1_9 clk2.clkout_hier0_bF$buf5 vdd gnd clk2.clkout_bF$buf33 CLKBUF1
XCLKBUF1_10 clk2.clkout_hier0_bF$buf1 vdd gnd clk2.clkout_bF$buf32 CLKBUF1
XCLKBUF1_11 clk2.clkout_hier0_bF$buf2 vdd gnd clk2.clkout_bF$buf31 CLKBUF1
XCLKBUF1_12 clk2.clkout_hier0_bF$buf1 vdd gnd clk2.clkout_bF$buf30 CLKBUF1
XCLKBUF1_13 clk2.clkout_hier0_bF$buf5 vdd gnd clk2.clkout_bF$buf29 CLKBUF1
XCLKBUF1_14 clk2.clkout_hier0_bF$buf1 vdd gnd clk2.clkout_bF$buf28 CLKBUF1
XCLKBUF1_15 clk2.clkout_hier0_bF$buf3 vdd gnd clk2.clkout_bF$buf27 CLKBUF1
XCLKBUF1_16 clk2.clkout_hier0_bF$buf4 vdd gnd clk2.clkout_bF$buf26 CLKBUF1
XCLKBUF1_17 clk2.clkout_hier0_bF$buf2 vdd gnd clk2.clkout_bF$buf25 CLKBUF1
XCLKBUF1_18 clk2.clkout_hier0_bF$buf3 vdd gnd clk2.clkout_bF$buf24 CLKBUF1
XCLKBUF1_19 clk2.clkout_hier0_bF$buf3 vdd gnd clk2.clkout_bF$buf23 CLKBUF1
XCLKBUF1_20 clk2.clkout_hier0_bF$buf1 vdd gnd clk2.clkout_bF$buf22 CLKBUF1
XCLKBUF1_21 clk2.clkout_hier0_bF$buf3 vdd gnd clk2.clkout_bF$buf21 CLKBUF1
XCLKBUF1_22 clk2.clkout_hier0_bF$buf0 vdd gnd clk2.clkout_bF$buf20 CLKBUF1
XCLKBUF1_23 clk2.clkout_hier0_bF$buf4 vdd gnd clk2.clkout_bF$buf19 CLKBUF1
XCLKBUF1_24 clk2.clkout_hier0_bF$buf4 vdd gnd clk2.clkout_bF$buf18 CLKBUF1
XCLKBUF1_25 clk2.clkout_hier0_bF$buf3 vdd gnd clk2.clkout_bF$buf17 CLKBUF1
XCLKBUF1_26 clk2.clkout_hier0_bF$buf2 vdd gnd clk2.clkout_bF$buf16 CLKBUF1
XCLKBUF1_27 clk2.clkout_hier0_bF$buf0 vdd gnd clk2.clkout_bF$buf15 CLKBUF1
XCLKBUF1_28 clk2.clkout_hier0_bF$buf5 vdd gnd clk2.clkout_bF$buf14 CLKBUF1
XCLKBUF1_29 clk2.clkout_hier0_bF$buf0 vdd gnd clk2.clkout_bF$buf13 CLKBUF1
XCLKBUF1_30 clk2.clkout_hier0_bF$buf4 vdd gnd clk2.clkout_bF$buf12 CLKBUF1
XCLKBUF1_31 clk2.clkout_hier0_bF$buf3 vdd gnd clk2.clkout_bF$buf11 CLKBUF1
XCLKBUF1_32 clk2.clkout_hier0_bF$buf3 vdd gnd clk2.clkout_bF$buf10 CLKBUF1
XCLKBUF1_33 clk2.clkout_hier0_bF$buf2 vdd gnd clk2.clkout_bF$buf9 CLKBUF1
XCLKBUF1_34 clk2.clkout_hier0_bF$buf1 vdd gnd clk2.clkout_bF$buf8 CLKBUF1
XCLKBUF1_35 clk2.clkout_hier0_bF$buf4 vdd gnd clk2.clkout_bF$buf7 CLKBUF1
XCLKBUF1_36 clk2.clkout_hier0_bF$buf2 vdd gnd clk2.clkout_bF$buf6 CLKBUF1
XCLKBUF1_37 clk2.clkout_hier0_bF$buf5 vdd gnd clk2.clkout_bF$buf5 CLKBUF1
XCLKBUF1_38 clk2.clkout_hier0_bF$buf5 vdd gnd clk2.clkout_bF$buf4 CLKBUF1
XCLKBUF1_39 clk2.clkout_hier0_bF$buf0 vdd gnd clk2.clkout_bF$buf3 CLKBUF1
XCLKBUF1_40 clk2.clkout_hier0_bF$buf0 vdd gnd clk2.clkout_bF$buf2 CLKBUF1
XCLKBUF1_41 clk2.clkout_hier0_bF$buf5 vdd gnd clk2.clkout_bF$buf1 CLKBUF1
XCLKBUF1_42 clk2.clkout_hier0_bF$buf4 vdd gnd clk2.clkout_bF$buf0 CLKBUF1
XBUFX2_11 vdd gnd _4_ _4__bF$buf3 BUFX2
XBUFX2_12 vdd gnd _4_ _4__bF$buf2 BUFX2
XBUFX2_13 vdd gnd _4_ _4__bF$buf1 BUFX2
XBUFX2_14 vdd gnd _4_ _4__bF$buf0 BUFX2
XCLKBUF1_43 clk vdd gnd clk_bF$buf6 CLKBUF1
XCLKBUF1_44 clk vdd gnd clk_bF$buf5 CLKBUF1
XCLKBUF1_45 clk vdd gnd clk_bF$buf4 CLKBUF1
XCLKBUF1_46 clk vdd gnd clk_bF$buf3 CLKBUF1
XCLKBUF1_47 clk vdd gnd clk_bF$buf2 CLKBUF1
XCLKBUF1_48 clk vdd gnd clk_bF$buf1 CLKBUF1
XCLKBUF1_49 clk vdd gnd clk_bF$buf0 CLKBUF1
XBUFX2_15 vdd gnd _36_ _36__bF$buf3 BUFX2
XBUFX2_16 vdd gnd _36_ _36__bF$buf2 BUFX2
XBUFX2_17 vdd gnd _36_ _36__bF$buf1 BUFX2
XBUFX2_18 vdd gnd _36_ _36__bF$buf0 BUFX2
XBUFX2_19 vdd gnd _33_ _33__bF$buf3 BUFX2
XBUFX2_20 vdd gnd _33_ _33__bF$buf2 BUFX2
XBUFX2_21 vdd gnd _33_ _33__bF$buf1 BUFX2
XBUFX2_22 vdd gnd _33_ _33__bF$buf0 BUFX2
XBUFX2_23 vdd gnd _229_ _229__bF$buf3 BUFX2
XBUFX2_24 vdd gnd _229_ _229__bF$buf2 BUFX2
XBUFX2_25 vdd gnd _229_ _229__bF$buf1 BUFX2
XBUFX2_26 vdd gnd _229_ _229__bF$buf0 BUFX2
XBUFX2_27 vdd gnd _261_ _261__bF$buf3 BUFX2
XBUFX2_28 vdd gnd _261_ _261__bF$buf2 BUFX2
XBUFX2_29 vdd gnd _261_ _261__bF$buf1 BUFX2
XBUFX2_30 vdd gnd _261_ _261__bF$buf0 BUFX2
XBUFX2_31 vdd gnd _258_ _258__bF$buf3 BUFX2
XBUFX2_32 vdd gnd _258_ _258__bF$buf2 BUFX2
XBUFX2_33 vdd gnd _258_ _258__bF$buf1 BUFX2
XBUFX2_34 vdd gnd _258_ _258__bF$buf0 BUFX2
XBUFX2_35 vdd gnd rst rst_bF$buf5 BUFX2
XBUFX2_36 vdd gnd rst rst_bF$buf4 BUFX2
XBUFX2_37 vdd gnd rst rst_bF$buf3 BUFX2
XBUFX2_38 vdd gnd rst rst_bF$buf2 BUFX2
XBUFX2_39 vdd gnd rst rst_bF$buf1 BUFX2
XBUFX2_40 vdd gnd rst rst_bF$buf0 BUFX2
XBUFX2_41 vdd gnd _0_ _0__bF$buf10 BUFX2
XBUFX2_42 vdd gnd _0_ _0__bF$buf9 BUFX2
XBUFX2_43 vdd gnd _0_ _0__bF$buf8 BUFX2
XBUFX2_44 vdd gnd _0_ _0__bF$buf7 BUFX2
XBUFX2_45 vdd gnd _0_ _0__bF$buf6 BUFX2
XBUFX2_46 vdd gnd _0_ _0__bF$buf5 BUFX2
XBUFX2_47 vdd gnd _0_ _0__bF$buf4 BUFX2
XBUFX2_48 vdd gnd _0_ _0__bF$buf3 BUFX2
XBUFX2_49 vdd gnd _0_ _0__bF$buf2 BUFX2
XBUFX2_50 vdd gnd _0_ _0__bF$buf1 BUFX2
XBUFX2_51 vdd gnd _0_ _0__bF$buf0 BUFX2
XBUFX2_52 vdd gnd mac1.reset mac1.reset_bF$buf3 BUFX2
XBUFX2_53 vdd gnd mac1.reset mac1.reset_bF$buf2 BUFX2
XBUFX2_54 vdd gnd mac1.reset mac1.reset_bF$buf1 BUFX2
XBUFX2_55 vdd gnd mac1.reset mac1.reset_bF$buf0 BUFX2
XBUFX2_56 vdd gnd rom1.data[0] rom1.data[0_bF$buf3] BUFX2
XBUFX2_57 vdd gnd rom1.data[0] rom1.data[0_bF$buf2] BUFX2
XBUFX2_58 vdd gnd rom1.data[0] rom1.data[0_bF$buf1] BUFX2
XBUFX2_59 vdd gnd rom1.data[0] rom1.data[0_bF$buf0] BUFX2
XBUFX2_60 vdd gnd _225_ _225__bF$buf10 BUFX2
XBUFX2_61 vdd gnd _225_ _225__bF$buf9 BUFX2
XBUFX2_62 vdd gnd _225_ _225__bF$buf8 BUFX2
XBUFX2_63 vdd gnd _225_ _225__bF$buf7 BUFX2
XBUFX2_64 vdd gnd _225_ _225__bF$buf6 BUFX2
XBUFX2_65 vdd gnd _225_ _225__bF$buf5 BUFX2
XBUFX2_66 vdd gnd _225_ _225__bF$buf4 BUFX2
XBUFX2_67 vdd gnd _225_ _225__bF$buf3 BUFX2
XBUFX2_68 vdd gnd _225_ _225__bF$buf2 BUFX2
XBUFX2_69 vdd gnd _225_ _225__bF$buf1 BUFX2
XBUFX2_70 vdd gnd _225_ _225__bF$buf0 BUFX2
XBUFX2_71 vdd gnd reg3.dataout[0] dout[0] BUFX2
XBUFX2_72 vdd gnd reg3.dataout[1] dout[1] BUFX2
XBUFX2_73 vdd gnd reg3.dataout[2] dout[2] BUFX2
XBUFX2_74 vdd gnd reg3.dataout[3] dout[3] BUFX2
XBUFX2_75 vdd gnd reg3.dataout[4] dout[4] BUFX2
XBUFX2_76 vdd gnd reg3.dataout[5] dout[5] BUFX2
XBUFX2_77 vdd gnd reg3.dataout[6] dout[6] BUFX2
XBUFX2_78 vdd gnd reg3.dataout[7] dout[7] BUFX2
XINVX1_1 asr1.rom[6][0] _1_ vdd gnd INVX1
XINVX1_2 asr1.rom[5][0] _2_ vdd gnd INVX1
XINVX1_3 counterup.counter[3] _3_ vdd gnd INVX1
XAND2X2_1 vdd gnd _3_ counterup.counter[2] _4_ AND2X2
XINVX1_4 counterup.counter[1] _5_ vdd gnd INVX1
XAND2X2_2 vdd gnd _5_ counterup.counter[0_bF$buf3] _6_ AND2X2
XNAND2X1_1 vdd _7_ gnd _4__bF$buf2 _6_ NAND2X1
XNOR2X1_1 vdd _5_ gnd _8_ counterup.counter[0_bF$buf2] NOR2X1
XNAND2X1_2 vdd _9_ gnd _8_ _4__bF$buf3 NAND2X1
XOAI22X1_1 gnd vdd _7_ _2_ _1_ _9_ _10_ OAI22X1
XINVX1_5 asr1.rom[10][0] _11_ vdd gnd INVX1
XINVX1_6 asr1.rom[9][0] _12_ vdd gnd INVX1
XNOR2X1_2 vdd _3_ gnd _13_ counterup.counter[2] NOR2X1
XNAND2X1_3 vdd _14_ gnd _13_ _6_ NAND2X1
XNAND2X1_4 vdd _15_ gnd _8_ _13_ NAND2X1
XOAI22X1_2 gnd vdd _14_ _12_ _11_ _15_ _16_ OAI22X1
XNOR2X1_3 vdd _10_ gnd _17_ _16_ NOR2X1
XINVX1_7 asr1.rom[2][0] _18_ vdd gnd INVX1
XINVX1_8 asr1.rom[1][0] _19_ vdd gnd INVX1
XNOR2X1_4 vdd counterup.counter[2] gnd _20_ counterup.counter[3] NOR2X1
XNAND2X1_5 vdd _21_ gnd _20_ _6_ NAND2X1
XNAND2X1_6 vdd _22_ gnd _20_ _8_ NAND2X1
XOAI22X1_3 gnd vdd _21_ _19_ _18_ _22_ _23_ OAI22X1
XINVX1_9 asr1.rom[14][0] _24_ vdd gnd INVX1
XNAND2X1_7 vdd _25_ gnd counterup.counter[0_bF$buf1] _5_ NAND2X1
XNAND2X1_8 vdd _26_ gnd counterup.counter[3] counterup.counter[2] NAND2X1
XNOR2X1_5 vdd _25_ gnd _27_ _26_ NOR2X1
XNAND2X1_9 vdd _28_ gnd asr1.rom[13][0] _27_ NAND2X1
XAND2X2_3 vdd gnd counterup.counter[3] counterup.counter[2] _29_ AND2X2
XNAND2X1_10 vdd _30_ gnd _29_ _8_ NAND2X1
XOAI21X1_1 gnd vdd _24_ _30_ _31_ _28_ OAI21X1
XNOR2X1_6 vdd _31_ gnd _32_ _23_ NOR2X1
XAND2X2_4 vdd gnd counterup.counter[1] counterup.counter[0_bF$buf0] _33_ AND2X2
XAND2X2_5 vdd gnd _33__bF$buf3 _20_ _34_ AND2X2
XNAND2X1_11 vdd _35_ gnd asr1.rom[3][0] _34_ NAND2X1
XNOR2X1_7 vdd counterup.counter[0_bF$buf3] gnd _36_ counterup.counter[1] NOR2X1
XNAND3X1_1 _36__bF$buf2 vdd gnd asr1.rom[4][0] _4__bF$buf0 _37_ NAND3X1
XNAND3X1_2 _20_ vdd gnd asr1.rom[0][0] _36__bF$buf2 _38_ NAND3X1
XNAND3X1_3 _29_ vdd gnd asr1.en[0] _33__bF$buf2 _39_ NAND3X1
XAND2X2_6 vdd gnd _39_ _38_ _40_ AND2X2
XNAND3X1_4 _37_ vdd gnd _35_ _40_ _41_ NAND3X1
XNAND3X1_5 _33__bF$buf0 vdd gnd asr1.rom[7][0] _4__bF$buf3 _42_ NAND3X1
XNAND3X1_6 _36__bF$buf2 vdd gnd asr1.rom[8][0] _13_ _43_ NAND3X1
XNAND2X1_12 vdd _44_ gnd counterup.counter[1] counterup.counter[0_bF$buf2] NAND2X1
XNOR3X1_1 vdd gnd _3_ _44_ counterup.counter[2] _45_ NOR3X1
XNOR3X1_2 vdd gnd counterup.counter[0_bF$buf1] _26_ counterup.counter[1] _46_ NOR3X1
XAOI22X1_1 gnd vdd asr1.rom[11][0] _45_ _47_ _46_ asr1.rom[12][0] AOI22X1
XNAND3X1_7 _43_ vdd gnd _42_ _47_ _48_ NAND3X1
XNOR2X1_8 vdd _48_ gnd _49_ _41_ NOR2X1
XNAND3X1_8 _32_ vdd gnd _17_ _49_ asr1.dataout[0] NAND3X1
XINVX1_10 asr1.rom[6][1] _50_ vdd gnd INVX1
XINVX1_11 asr1.rom[5][1] _51_ vdd gnd INVX1
XOAI22X1_4 gnd vdd _7_ _51_ _50_ _9_ _52_ OAI22X1
XINVX1_12 asr1.rom[10][1] _53_ vdd gnd INVX1
XINVX1_13 asr1.rom[9][1] _54_ vdd gnd INVX1
XOAI22X1_5 gnd vdd _14_ _54_ _53_ _15_ _55_ OAI22X1
XNOR2X1_9 vdd _52_ gnd _56_ _55_ NOR2X1
XINVX1_14 asr1.rom[2][1] _57_ vdd gnd INVX1
XINVX1_15 asr1.rom[1][1] _58_ vdd gnd INVX1
XOAI22X1_6 gnd vdd _21_ _58_ _57_ _22_ _59_ OAI22X1
XINVX1_16 asr1.rom[14][1] _60_ vdd gnd INVX1
XNAND2X1_13 vdd _61_ gnd asr1.rom[13][1] _27_ NAND2X1
XOAI21X1_2 gnd vdd _60_ _30_ _62_ _61_ OAI21X1
XNOR2X1_10 vdd _62_ gnd _63_ _59_ NOR2X1
XNAND2X1_14 vdd _64_ gnd asr1.rom[3][1] _34_ NAND2X1
XNAND3X1_9 _36__bF$buf1 vdd gnd asr1.rom[4][1] _4__bF$buf2 _65_ NAND3X1
XNAND3X1_10 _20_ vdd gnd asr1.rom[0][1] _36__bF$buf0 _66_ NAND3X1
XNAND3X1_11 _29_ vdd gnd asr1.en[1] _33__bF$buf1 _67_ NAND3X1
XAND2X2_7 vdd gnd _67_ _66_ _68_ AND2X2
XNAND3X1_12 _65_ vdd gnd _64_ _68_ _69_ NAND3X1
XNAND3X1_13 _33__bF$buf3 vdd gnd asr1.rom[7][1] _4__bF$buf1 _70_ NAND3X1
XNAND3X1_14 _36__bF$buf3 vdd gnd asr1.rom[8][1] _13_ _71_ NAND3X1
XAOI22X1_2 gnd vdd asr1.rom[11][1] _45_ _72_ _46_ asr1.rom[12][1] AOI22X1
XNAND3X1_15 _71_ vdd gnd _70_ _72_ _73_ NAND3X1
XNOR2X1_11 vdd _73_ gnd _74_ _69_ NOR2X1
XNAND3X1_16 _63_ vdd gnd _56_ _74_ asr1.dataout[1] NAND3X1
XINVX1_17 asr1.rom[6][2] _75_ vdd gnd INVX1
XINVX1_18 asr1.rom[5][2] _76_ vdd gnd INVX1
XOAI22X1_7 gnd vdd _7_ _76_ _75_ _9_ _77_ OAI22X1
XINVX1_19 asr1.rom[10][2] _78_ vdd gnd INVX1
XINVX1_20 asr1.rom[9][2] _79_ vdd gnd INVX1
XOAI22X1_8 gnd vdd _14_ _79_ _78_ _15_ _80_ OAI22X1
XNOR2X1_12 vdd _77_ gnd _81_ _80_ NOR2X1
XINVX1_21 asr1.rom[2][2] _82_ vdd gnd INVX1
XINVX1_22 asr1.rom[1][2] _83_ vdd gnd INVX1
XOAI22X1_9 gnd vdd _21_ _83_ _82_ _22_ _84_ OAI22X1
XINVX1_23 asr1.rom[14][2] _85_ vdd gnd INVX1
XNAND2X1_15 vdd _86_ gnd asr1.rom[13][2] _27_ NAND2X1
XOAI21X1_3 gnd vdd _85_ _30_ _87_ _86_ OAI21X1
XNOR2X1_13 vdd _87_ gnd _88_ _84_ NOR2X1
XNAND2X1_16 vdd _89_ gnd asr1.rom[3][2] _34_ NAND2X1
XNAND3X1_17 _36__bF$buf2 vdd gnd asr1.rom[4][2] _4__bF$buf3 _90_ NAND3X1
XNAND3X1_18 _20_ vdd gnd asr1.rom[0][2] _36__bF$buf2 _91_ NAND3X1
XNAND3X1_19 _29_ vdd gnd asr1.en[2] _33__bF$buf2 _92_ NAND3X1
XAND2X2_8 vdd gnd _92_ _91_ _93_ AND2X2
XNAND3X1_20 _90_ vdd gnd _89_ _93_ _94_ NAND3X1
XNAND3X1_21 _33__bF$buf0 vdd gnd asr1.rom[7][2] _4__bF$buf3 _95_ NAND3X1
XNAND3X1_22 _36__bF$buf0 vdd gnd asr1.rom[8][2] _13_ _96_ NAND3X1
XAOI22X1_3 gnd vdd asr1.rom[11][2] _45_ _97_ _46_ asr1.rom[12][2] AOI22X1
XNAND3X1_23 _96_ vdd gnd _95_ _97_ _98_ NAND3X1
XNOR2X1_14 vdd _98_ gnd _99_ _94_ NOR2X1
XNAND3X1_24 _88_ vdd gnd _81_ _99_ asr1.dataout[2] NAND3X1
XINVX1_24 asr1.rom[6][3] _100_ vdd gnd INVX1
XINVX1_25 asr1.rom[5][3] _101_ vdd gnd INVX1
XOAI22X1_10 gnd vdd _7_ _101_ _100_ _9_ _102_ OAI22X1
XINVX1_26 asr1.rom[10][3] _103_ vdd gnd INVX1
XINVX1_27 asr1.rom[9][3] _104_ vdd gnd INVX1
XOAI22X1_11 gnd vdd _14_ _104_ _103_ _15_ _105_ OAI22X1
XNOR2X1_15 vdd _102_ gnd _106_ _105_ NOR2X1
XINVX1_28 asr1.rom[2][3] _107_ vdd gnd INVX1
XINVX1_29 asr1.rom[1][3] _108_ vdd gnd INVX1
XOAI22X1_12 gnd vdd _21_ _108_ _107_ _22_ _109_ OAI22X1
XINVX1_30 asr1.rom[14][3] _110_ vdd gnd INVX1
XNAND2X1_17 vdd _111_ gnd asr1.rom[13][3] _27_ NAND2X1
XOAI21X1_4 gnd vdd _110_ _30_ _112_ _111_ OAI21X1
XNOR2X1_16 vdd _112_ gnd _113_ _109_ NOR2X1
XNAND2X1_18 vdd _114_ gnd asr1.rom[3][3] _34_ NAND2X1
XNAND3X1_25 _36__bF$buf1 vdd gnd asr1.rom[4][3] _4__bF$buf2 _115_ NAND3X1
XNAND3X1_26 _20_ vdd gnd asr1.rom[0][3] _36__bF$buf1 _116_ NAND3X1
XNAND3X1_27 _29_ vdd gnd asr1.en[3] _33__bF$buf1 _117_ NAND3X1
XAND2X2_9 vdd gnd _117_ _116_ _118_ AND2X2
XNAND3X1_28 _115_ vdd gnd _114_ _118_ _119_ NAND3X1
XNAND3X1_29 _33__bF$buf1 vdd gnd asr1.rom[7][3] _4__bF$buf2 _120_ NAND3X1
XNAND3X1_30 _36__bF$buf0 vdd gnd asr1.rom[8][3] _13_ _121_ NAND3X1
XAOI22X1_4 gnd vdd asr1.rom[11][3] _45_ _122_ _46_ asr1.rom[12][3] AOI22X1
XNAND3X1_31 _121_ vdd gnd _120_ _122_ _123_ NAND3X1
XNOR2X1_17 vdd _123_ gnd _124_ _119_ NOR2X1
XNAND3X1_32 _113_ vdd gnd _106_ _124_ asr1.dataout[3] NAND3X1
XINVX1_31 asr1.rom[6][4] _125_ vdd gnd INVX1
XINVX1_32 asr1.rom[5][4] _126_ vdd gnd INVX1
XOAI22X1_13 gnd vdd _7_ _126_ _125_ _9_ _127_ OAI22X1
XINVX1_33 asr1.rom[10][4] _128_ vdd gnd INVX1
XINVX1_34 asr1.rom[9][4] _129_ vdd gnd INVX1
XOAI22X1_14 gnd vdd _14_ _129_ _128_ _15_ _130_ OAI22X1
XNOR2X1_18 vdd _127_ gnd _131_ _130_ NOR2X1
XINVX1_35 asr1.rom[2][4] _132_ vdd gnd INVX1
XINVX1_36 asr1.rom[1][4] _133_ vdd gnd INVX1
XOAI22X1_15 gnd vdd _21_ _133_ _132_ _22_ _134_ OAI22X1
XINVX1_37 asr1.rom[14][4] _135_ vdd gnd INVX1
XNAND2X1_19 vdd _136_ gnd asr1.rom[13][4] _27_ NAND2X1
XOAI21X1_5 gnd vdd _135_ _30_ _137_ _136_ OAI21X1
XNOR2X1_19 vdd _137_ gnd _138_ _134_ NOR2X1
XNAND2X1_20 vdd _139_ gnd asr1.rom[3][4] _34_ NAND2X1
XNAND3X1_33 _36__bF$buf3 vdd gnd asr1.rom[4][4] _4__bF$buf0 _140_ NAND3X1
XNAND3X1_34 _20_ vdd gnd asr1.rom[0][4] _36__bF$buf3 _141_ NAND3X1
XNAND3X1_35 _29_ vdd gnd asr1.en[4] _33__bF$buf2 _142_ NAND3X1
XAND2X2_10 vdd gnd _142_ _141_ _143_ AND2X2
XNAND3X1_36 _140_ vdd gnd _139_ _143_ _144_ NAND3X1
XNAND3X1_37 _33__bF$buf2 vdd gnd asr1.rom[7][4] _4__bF$buf0 _145_ NAND3X1
XNAND3X1_38 _36__bF$buf2 vdd gnd asr1.rom[8][4] _13_ _146_ NAND3X1
XAOI22X1_5 gnd vdd asr1.rom[11][4] _45_ _147_ _46_ asr1.rom[12][4] AOI22X1
XNAND3X1_39 _146_ vdd gnd _145_ _147_ _148_ NAND3X1
XNOR2X1_20 vdd _148_ gnd _149_ _144_ NOR2X1
XNAND3X1_40 _138_ vdd gnd _131_ _149_ asr1.dataout[4] NAND3X1
XINVX1_38 asr1.rom[6][5] _150_ vdd gnd INVX1
XINVX1_39 asr1.rom[5][5] _151_ vdd gnd INVX1
XOAI22X1_16 gnd vdd _7_ _151_ _150_ _9_ _152_ OAI22X1
XINVX1_40 asr1.rom[10][5] _153_ vdd gnd INVX1
XINVX1_41 asr1.rom[9][5] _154_ vdd gnd INVX1
XOAI22X1_17 gnd vdd _14_ _154_ _153_ _15_ _155_ OAI22X1
XNOR2X1_21 vdd _152_ gnd _156_ _155_ NOR2X1
XINVX1_42 asr1.rom[2][5] _157_ vdd gnd INVX1
XINVX1_43 asr1.rom[1][5] _158_ vdd gnd INVX1
XOAI22X1_18 gnd vdd _21_ _158_ _157_ _22_ _159_ OAI22X1
XINVX1_44 asr1.rom[14][5] _160_ vdd gnd INVX1
XNAND2X1_21 vdd _161_ gnd asr1.rom[13][5] _27_ NAND2X1
XOAI21X1_6 gnd vdd _160_ _30_ _162_ _161_ OAI21X1
XNOR2X1_22 vdd _162_ gnd _163_ _159_ NOR2X1
XNAND2X1_22 vdd _164_ gnd asr1.rom[3][5] _34_ NAND2X1
XNAND3X1_41 _36__bF$buf0 vdd gnd asr1.rom[4][5] _4__bF$buf3 _165_ NAND3X1
XNAND3X1_42 _20_ vdd gnd asr1.rom[0][5] _36__bF$buf0 _166_ NAND3X1
XNAND3X1_43 _29_ vdd gnd asr1.en[5] _33__bF$buf0 _167_ NAND3X1
XAND2X2_11 vdd gnd _167_ _166_ _168_ AND2X2
XNAND3X1_44 _165_ vdd gnd _164_ _168_ _169_ NAND3X1
XNAND3X1_45 _33__bF$buf3 vdd gnd asr1.rom[7][5] _4__bF$buf1 _170_ NAND3X1
XNAND3X1_46 _36__bF$buf3 vdd gnd asr1.rom[8][5] _13_ _171_ NAND3X1
XAOI22X1_6 gnd vdd asr1.rom[11][5] _45_ _172_ _46_ asr1.rom[12][5] AOI22X1
XNAND3X1_47 _171_ vdd gnd _170_ _172_ _173_ NAND3X1
XNOR2X1_23 vdd _173_ gnd _174_ _169_ NOR2X1
XNAND3X1_48 _163_ vdd gnd _156_ _174_ asr1.dataout[5] NAND3X1
XINVX1_45 asr1.rom[6][6] _175_ vdd gnd INVX1
XINVX1_46 asr1.rom[5][6] _176_ vdd gnd INVX1
XOAI22X1_19 gnd vdd _7_ _176_ _175_ _9_ _177_ OAI22X1
XINVX1_47 asr1.rom[10][6] _178_ vdd gnd INVX1
XINVX1_48 asr1.rom[9][6] _179_ vdd gnd INVX1
XOAI22X1_20 gnd vdd _14_ _179_ _178_ _15_ _180_ OAI22X1
XNOR2X1_24 vdd _177_ gnd _181_ _180_ NOR2X1
XINVX1_49 asr1.rom[2][6] _182_ vdd gnd INVX1
XINVX1_50 asr1.rom[1][6] _183_ vdd gnd INVX1
XOAI22X1_21 gnd vdd _21_ _183_ _182_ _22_ _184_ OAI22X1
XINVX1_51 asr1.rom[14][6] _185_ vdd gnd INVX1
XNAND2X1_23 vdd _186_ gnd asr1.rom[13][6] _27_ NAND2X1
XOAI21X1_7 gnd vdd _185_ _30_ _187_ _186_ OAI21X1
XNOR2X1_25 vdd _187_ gnd _188_ _184_ NOR2X1
XNAND2X1_24 vdd _189_ gnd asr1.rom[3][6] _34_ NAND2X1
XNAND3X1_49 _36__bF$buf1 vdd gnd asr1.rom[4][6] _4__bF$buf1 _190_ NAND3X1
XNAND3X1_50 _20_ vdd gnd asr1.rom[0][6] _36__bF$buf0 _191_ NAND3X1
XNAND3X1_51 _29_ vdd gnd asr1.en[6] _33__bF$buf0 _192_ NAND3X1
XAND2X2_12 vdd gnd _192_ _191_ _193_ AND2X2
XNAND3X1_52 _190_ vdd gnd _189_ _193_ _194_ NAND3X1
XNAND3X1_53 _33__bF$buf3 vdd gnd asr1.rom[7][6] _4__bF$buf1 _195_ NAND3X1
XNAND3X1_54 _36__bF$buf3 vdd gnd asr1.rom[8][6] _13_ _196_ NAND3X1
XAOI22X1_7 gnd vdd asr1.rom[11][6] _45_ _197_ _46_ asr1.rom[12][6] AOI22X1
XNAND3X1_55 _196_ vdd gnd _195_ _197_ _198_ NAND3X1
XNOR2X1_26 vdd _198_ gnd _199_ _194_ NOR2X1
XNAND3X1_56 _188_ vdd gnd _181_ _199_ asr1.dataout[6] NAND3X1
XINVX1_52 asr1.rom[6][7] _200_ vdd gnd INVX1
XINVX1_53 asr1.rom[5][7] _201_ vdd gnd INVX1
XOAI22X1_22 gnd vdd _7_ _201_ _200_ _9_ _202_ OAI22X1
XINVX1_54 asr1.rom[10][7] _203_ vdd gnd INVX1
XINVX1_55 asr1.rom[9][7] _204_ vdd gnd INVX1
XOAI22X1_23 gnd vdd _14_ _204_ _203_ _15_ _205_ OAI22X1
XNOR2X1_27 vdd _202_ gnd _206_ _205_ NOR2X1
XINVX1_56 asr1.rom[2][7] _207_ vdd gnd INVX1
XINVX1_57 asr1.rom[1][7] _208_ vdd gnd INVX1
XOAI22X1_24 gnd vdd _21_ _208_ _207_ _22_ _209_ OAI22X1
XINVX1_58 asr1.rom[14][7] _210_ vdd gnd INVX1
XNAND2X1_25 vdd _211_ gnd asr1.rom[13][7] _27_ NAND2X1
XOAI21X1_8 gnd vdd _210_ _30_ _212_ _211_ OAI21X1
XNOR2X1_28 vdd _212_ gnd _213_ _209_ NOR2X1
XNAND2X1_26 vdd _214_ gnd asr1.rom[3][7] _34_ NAND2X1
XNAND3X1_57 _36__bF$buf1 vdd gnd asr1.rom[4][7] _4__bF$buf2 _215_ NAND3X1
XNAND3X1_58 _20_ vdd gnd asr1.rom[0][7] _36__bF$buf1 _216_ NAND3X1
XNAND3X1_59 _29_ vdd gnd asr1.en[7] _33__bF$buf1 _217_ NAND3X1
XAND2X2_13 vdd gnd _217_ _216_ _218_ AND2X2
XNAND3X1_60 _215_ vdd gnd _214_ _218_ _219_ NAND3X1
XNAND3X1_61 _33__bF$buf3 vdd gnd asr1.rom[7][7] _4__bF$buf0 _220_ NAND3X1
XNAND3X1_62 _36__bF$buf3 vdd gnd asr1.rom[8][7] _13_ _221_ NAND3X1
XAOI22X1_8 gnd vdd asr1.rom[11][7] _45_ _222_ _46_ asr1.rom[12][7] AOI22X1
XNAND3X1_63 _221_ vdd gnd _220_ _222_ _223_ NAND3X1
XNOR2X1_29 vdd _223_ gnd _224_ _219_ NOR2X1
XNAND3X1_64 _213_ vdd gnd _206_ _224_ asr1.dataout[7] NAND3X1
XINVX1_59 rst_bF$buf5 _0_ vdd gnd INVX1
XDFFSR_1 gnd vdd reg1.dataout[0] vdd _0__bF$buf8 asr1.rom[0][0] clk2.clkout_bF$buf23 DFFSR
XDFFSR_2 gnd vdd reg1.dataout[1] vdd _0__bF$buf5 asr1.rom[0][1] clk2.clkout_bF$buf14 DFFSR
XDFFSR_3 gnd vdd reg1.dataout[2] vdd _0__bF$buf9 asr1.rom[0][2] clk2.clkout_bF$buf41 DFFSR
XDFFSR_4 gnd vdd reg1.dataout[3] vdd _0__bF$buf1 asr1.rom[0][3] clk2.clkout_bF$buf38 DFFSR
XDFFSR_5 gnd vdd reg1.dataout[4] vdd _0__bF$buf0 asr1.rom[0][4] clk2.clkout_bF$buf12 DFFSR
XDFFSR_6 gnd vdd reg1.dataout[5] vdd _0__bF$buf5 asr1.rom[0][5] clk2.clkout_bF$buf14 DFFSR
XDFFSR_7 gnd vdd reg1.dataout[6] vdd _0__bF$buf7 asr1.rom[0][6] clk2.clkout_bF$buf33 DFFSR
XDFFSR_8 gnd vdd reg1.dataout[7] vdd _0__bF$buf1 asr1.rom[0][7] clk2.clkout_bF$buf29 DFFSR
XDFFSR_9 gnd vdd asr1.rom[6][0] vdd _0__bF$buf4 asr1.rom[7][0] clk2.clkout_bF$buf16 DFFSR
XDFFSR_10 gnd vdd asr1.rom[6][1] vdd _0__bF$buf6 asr1.rom[7][1] clk2.clkout_bF$buf4 DFFSR
XDFFSR_11 gnd vdd asr1.rom[6][2] vdd _0__bF$buf8 asr1.rom[7][2] clk2.clkout_bF$buf34 DFFSR
XDFFSR_12 gnd vdd asr1.rom[6][3] vdd _0__bF$buf1 asr1.rom[7][3] clk2.clkout_bF$buf29 DFFSR
XDFFSR_13 gnd vdd asr1.rom[6][4] vdd _0__bF$buf3 asr1.rom[7][4] clk2.clkout_bF$buf16 DFFSR
XDFFSR_14 gnd vdd asr1.rom[6][5] vdd _0__bF$buf7 asr1.rom[7][5] clk2.clkout_bF$buf6 DFFSR
XDFFSR_15 gnd vdd asr1.rom[6][6] vdd _0__bF$buf6 asr1.rom[7][6] clk2.clkout_bF$buf5 DFFSR
XDFFSR_16 gnd vdd asr1.rom[6][7] vdd _0__bF$buf4 asr1.rom[7][7] clk2.clkout_bF$buf33 DFFSR
XDFFSR_17 gnd vdd asr1.rom[1][0] vdd _0__bF$buf9 asr1.rom[2][0] clk2.clkout_bF$buf35 DFFSR
XDFFSR_18 gnd vdd asr1.rom[1][1] vdd _0__bF$buf7 asr1.rom[2][1] clk2.clkout_bF$buf9 DFFSR
XDFFSR_19 gnd vdd asr1.rom[1][2] vdd _0__bF$buf9 asr1.rom[2][2] clk2.clkout_bF$buf35 DFFSR
XDFFSR_20 gnd vdd asr1.rom[1][3] vdd _0__bF$buf1 asr1.rom[2][3] clk2.clkout_bF$buf38 DFFSR
XDFFSR_21 gnd vdd asr1.rom[1][4] vdd _0__bF$buf0 asr1.rom[2][4] clk2.clkout_bF$buf7 DFFSR
XDFFSR_22 gnd vdd asr1.rom[1][5] vdd _0__bF$buf5 asr1.rom[2][5] clk2.clkout_bF$buf1 DFFSR
XDFFSR_23 gnd vdd asr1.rom[1][6] vdd _0__bF$buf8 asr1.rom[2][6] clk2.clkout_bF$buf24 DFFSR
XDFFSR_24 gnd vdd asr1.rom[1][7] vdd _0__bF$buf5 asr1.rom[2][7] clk2.clkout_bF$buf14 DFFSR
XDFFSR_25 gnd vdd asr1.rom[0][0] vdd _0__bF$buf9 asr1.rom[1][0] clk2.clkout_bF$buf35 DFFSR
XDFFSR_26 gnd vdd asr1.rom[0][1] vdd _0__bF$buf5 asr1.rom[1][1] clk2.clkout_bF$buf1 DFFSR
XDFFSR_27 gnd vdd asr1.rom[0][2] vdd _0__bF$buf9 asr1.rom[1][2] clk2.clkout_bF$buf41 DFFSR
XDFFSR_28 gnd vdd asr1.rom[0][3] vdd _0__bF$buf5 asr1.rom[1][3] clk2.clkout_bF$buf29 DFFSR
XDFFSR_29 gnd vdd asr1.rom[0][4] vdd _0__bF$buf0 asr1.rom[1][4] clk2.clkout_bF$buf18 DFFSR
XDFFSR_30 gnd vdd asr1.rom[0][5] vdd _0__bF$buf5 asr1.rom[1][5] clk2.clkout_bF$buf1 DFFSR
XDFFSR_31 gnd vdd asr1.rom[0][6] vdd _0__bF$buf4 asr1.rom[1][6] clk2.clkout_bF$buf33 DFFSR
XDFFSR_32 gnd vdd asr1.rom[0][7] vdd _0__bF$buf5 asr1.rom[1][7] clk2.clkout_bF$buf29 DFFSR
XDFFSR_33 gnd vdd asr1.rom[2][0] vdd _0__bF$buf9 asr1.rom[3][0] clk2.clkout_bF$buf35 DFFSR
XDFFSR_34 gnd vdd asr1.rom[2][1] vdd _0__bF$buf8 asr1.rom[3][1] clk2.clkout_bF$buf10 DFFSR
XDFFSR_35 gnd vdd asr1.rom[2][2] vdd _0__bF$buf10 asr1.rom[3][2] clk2.clkout_bF$buf26 DFFSR
XDFFSR_36 gnd vdd asr1.rom[2][3] vdd _0__bF$buf1 asr1.rom[3][3] clk2.clkout_bF$buf5 DFFSR
XDFFSR_37 gnd vdd asr1.rom[2][4] vdd _0__bF$buf9 asr1.rom[3][4] clk2.clkout_bF$buf19 DFFSR
XDFFSR_38 gnd vdd asr1.rom[2][5] vdd _0__bF$buf5 asr1.rom[3][5] clk2.clkout_bF$buf33 DFFSR
XDFFSR_39 gnd vdd asr1.rom[2][6] vdd _0__bF$buf7 asr1.rom[3][6] clk2.clkout_bF$buf34 DFFSR
XDFFSR_40 gnd vdd asr1.rom[2][7] vdd _0__bF$buf5 asr1.rom[3][7] clk2.clkout_bF$buf29 DFFSR
XDFFSR_41 gnd vdd asr1.rom[3][0] vdd _0__bF$buf9 asr1.rom[4][0] clk2.clkout_bF$buf35 DFFSR
XDFFSR_42 gnd vdd asr1.rom[3][1] vdd _0__bF$buf4 asr1.rom[4][1] clk2.clkout_bF$buf33 DFFSR
XDFFSR_43 gnd vdd asr1.rom[3][2] vdd _0__bF$buf4 asr1.rom[4][2] clk2.clkout_bF$buf26 DFFSR
XDFFSR_44 gnd vdd asr1.rom[3][3] vdd _0__bF$buf1 asr1.rom[4][3] clk2.clkout_bF$buf5 DFFSR
XDFFSR_45 gnd vdd asr1.rom[3][4] vdd _0__bF$buf10 asr1.rom[4][4] clk2.clkout_bF$buf0 DFFSR
XDFFSR_46 gnd vdd asr1.rom[3][5] vdd _0__bF$buf8 asr1.rom[4][5] clk2.clkout_bF$buf10 DFFSR
XDFFSR_47 gnd vdd asr1.rom[3][6] vdd _0__bF$buf6 asr1.rom[4][6] clk2.clkout_bF$buf4 DFFSR
XDFFSR_48 gnd vdd asr1.rom[3][7] vdd _0__bF$buf1 asr1.rom[4][7] clk2.clkout_bF$buf29 DFFSR
XDFFSR_49 gnd vdd asr1.rom[5][0] vdd _0__bF$buf2 asr1.rom[6][0] clk2.clkout_bF$buf16 DFFSR
XDFFSR_50 gnd vdd asr1.rom[5][1] vdd _0__bF$buf1 asr1.rom[6][1] clk2.clkout_bF$buf5 DFFSR
XDFFSR_51 gnd vdd asr1.rom[5][2] vdd _0__bF$buf8 asr1.rom[6][2] clk2.clkout_bF$buf34 DFFSR
XDFFSR_52 gnd vdd asr1.rom[5][3] vdd _0__bF$buf1 asr1.rom[6][3] clk2.clkout_bF$buf38 DFFSR
XDFFSR_53 gnd vdd asr1.rom[5][4] vdd _0__bF$buf2 asr1.rom[6][4] clk2.clkout_bF$buf16 DFFSR
XDFFSR_54 gnd vdd asr1.rom[5][5] vdd _0__bF$buf8 asr1.rom[6][5] clk2.clkout_bF$buf10 DFFSR
XDFFSR_55 gnd vdd asr1.rom[5][6] vdd _0__bF$buf6 asr1.rom[6][6] clk2.clkout_bF$buf5 DFFSR
XDFFSR_56 gnd vdd asr1.rom[5][7] vdd _0__bF$buf4 asr1.rom[6][7] clk2.clkout_bF$buf33 DFFSR
XDFFSR_57 gnd vdd asr1.rom[4][0] vdd _0__bF$buf9 asr1.rom[5][0] clk2.clkout_bF$buf26 DFFSR
XDFFSR_58 gnd vdd asr1.rom[4][1] vdd _0__bF$buf5 asr1.rom[5][1] clk2.clkout_bF$buf29 DFFSR
XDFFSR_59 gnd vdd asr1.rom[4][2] vdd _0__bF$buf3 asr1.rom[5][2] clk2.clkout_bF$buf24 DFFSR
XDFFSR_60 gnd vdd asr1.rom[4][3] vdd _0__bF$buf1 asr1.rom[5][3] clk2.clkout_bF$buf38 DFFSR
XDFFSR_61 gnd vdd asr1.rom[4][4] vdd _0__bF$buf10 asr1.rom[5][4] clk2.clkout_bF$buf26 DFFSR
XDFFSR_62 gnd vdd asr1.rom[4][5] vdd _0__bF$buf8 asr1.rom[5][5] clk2.clkout_bF$buf11 DFFSR
XDFFSR_63 gnd vdd asr1.rom[4][6] vdd _0__bF$buf6 asr1.rom[5][6] clk2.clkout_bF$buf4 DFFSR
XDFFSR_64 gnd vdd asr1.rom[4][7] vdd _0__bF$buf1 asr1.rom[5][7] clk2.clkout_bF$buf5 DFFSR
XDFFSR_65 gnd vdd asr1.rom[7][0] vdd _0__bF$buf4 asr1.rom[8][0] clk2.clkout_bF$buf37 DFFSR
XDFFSR_66 gnd vdd asr1.rom[7][1] vdd _0__bF$buf6 asr1.rom[8][1] clk2.clkout_bF$buf7 DFFSR
XDFFSR_67 gnd vdd asr1.rom[7][2] vdd _0__bF$buf8 asr1.rom[8][2] clk2.clkout_bF$buf23 DFFSR
XDFFSR_68 gnd vdd asr1.rom[7][3] vdd _0__bF$buf4 asr1.rom[8][3] clk2.clkout_bF$buf33 DFFSR
XDFFSR_69 gnd vdd asr1.rom[7][4] vdd _0__bF$buf4 asr1.rom[8][4] clk2.clkout_bF$buf26 DFFSR
XDFFSR_70 gnd vdd asr1.rom[7][5] vdd _0__bF$buf4 asr1.rom[8][5] clk2.clkout_bF$buf37 DFFSR
XDFFSR_71 gnd vdd asr1.rom[7][6] vdd _0__bF$buf7 asr1.rom[8][6] clk2.clkout_bF$buf9 DFFSR
XDFFSR_72 gnd vdd asr1.rom[7][7] vdd _0__bF$buf10 asr1.rom[8][7] clk2.clkout_bF$buf37 DFFSR
XDFFSR_73 gnd vdd asr1.rom[8][0] vdd _0__bF$buf3 asr1.rom[9][0] clk2.clkout_bF$buf24 DFFSR
XDFFSR_74 gnd vdd asr1.rom[8][1] vdd _0__bF$buf10 asr1.rom[9][1] clk2.clkout_bF$buf7 DFFSR
XDFFSR_75 gnd vdd asr1.rom[8][2] vdd _0__bF$buf8 asr1.rom[9][2] clk2.clkout_bF$buf10 DFFSR
XDFFSR_76 gnd vdd asr1.rom[8][3] vdd _0__bF$buf5 asr1.rom[9][3] clk2.clkout_bF$buf1 DFFSR
XDFFSR_77 gnd vdd asr1.rom[8][4] vdd _0__bF$buf9 asr1.rom[9][4] clk2.clkout_bF$buf35 DFFSR
XDFFSR_78 gnd vdd asr1.rom[8][5] vdd _0__bF$buf6 asr1.rom[9][5] clk2.clkout_bF$buf0 DFFSR
XDFFSR_79 gnd vdd asr1.rom[8][6] vdd _0__bF$buf7 asr1.rom[9][6] clk2.clkout_bF$buf9 DFFSR
XDFFSR_80 gnd vdd asr1.rom[8][7] vdd _0__bF$buf10 asr1.rom[9][7] clk2.clkout_bF$buf0 DFFSR
XDFFSR_81 gnd vdd asr1.rom[9][0] vdd _0__bF$buf8 asr1.rom[10][0] clk2.clkout_bF$buf34 DFFSR
XDFFSR_82 gnd vdd asr1.rom[9][1] vdd _0__bF$buf10 asr1.rom[10][1] clk2.clkout_bF$buf7 DFFSR
XDFFSR_83 gnd vdd asr1.rom[9][2] vdd _0__bF$buf3 asr1.rom[10][2] clk2.clkout_bF$buf6 DFFSR
XDFFSR_84 gnd vdd asr1.rom[9][3] vdd _0__bF$buf7 asr1.rom[10][3] clk2.clkout_bF$buf1 DFFSR
XDFFSR_85 gnd vdd asr1.rom[9][4] vdd _0__bF$buf9 asr1.rom[10][4] clk2.clkout_bF$buf19 DFFSR
XDFFSR_86 gnd vdd asr1.rom[9][5] vdd _0__bF$buf6 asr1.rom[10][5] clk2.clkout_bF$buf0 DFFSR
XDFFSR_87 gnd vdd asr1.rom[9][6] vdd _0__bF$buf6 asr1.rom[10][6] clk2.clkout_bF$buf4 DFFSR
XDFFSR_88 gnd vdd asr1.rom[9][7] vdd _0__bF$buf0 asr1.rom[10][7] clk2.clkout_bF$buf19 DFFSR
XDFFSR_89 gnd vdd asr1.rom[10][0] vdd _0__bF$buf3 asr1.rom[11][0] clk2.clkout_bF$buf24 DFFSR
XDFFSR_90 gnd vdd asr1.rom[10][1] vdd _0__bF$buf10 asr1.rom[11][1] clk2.clkout_bF$buf7 DFFSR
XDFFSR_91 gnd vdd asr1.rom[10][2] vdd _0__bF$buf3 asr1.rom[11][2] clk2.clkout_bF$buf6 DFFSR
XDFFSR_92 gnd vdd asr1.rom[10][3] vdd _0__bF$buf7 asr1.rom[11][3] clk2.clkout_bF$buf1 DFFSR
XDFFSR_93 gnd vdd asr1.rom[10][4] vdd _0__bF$buf0 asr1.rom[11][4] clk2.clkout_bF$buf18 DFFSR
XDFFSR_94 gnd vdd asr1.rom[10][5] vdd _0__bF$buf6 asr1.rom[11][5] clk2.clkout_bF$buf4 DFFSR
XDFFSR_95 gnd vdd asr1.rom[10][6] vdd _0__bF$buf6 asr1.rom[11][6] clk2.clkout_bF$buf4 DFFSR
XDFFSR_96 gnd vdd asr1.rom[10][7] vdd _0__bF$buf0 asr1.rom[11][7] clk2.clkout_bF$buf19 DFFSR
XDFFSR_97 gnd vdd asr1.rom[11][0] vdd _0__bF$buf3 asr1.rom[12][0] clk2.clkout_bF$buf6 DFFSR
XDFFSR_98 gnd vdd asr1.rom[11][1] vdd _0__bF$buf0 asr1.rom[12][1] clk2.clkout_bF$buf7 DFFSR
XDFFSR_99 gnd vdd asr1.rom[11][2] vdd _0__bF$buf3 asr1.rom[12][2] clk2.clkout_bF$buf6 DFFSR
XDFFSR_100 gnd vdd asr1.rom[11][3] vdd _0__bF$buf7 asr1.rom[12][3] clk2.clkout_bF$buf9 DFFSR
XDFFSR_101 gnd vdd asr1.rom[11][4] vdd _0__bF$buf0 asr1.rom[12][4] clk2.clkout_bF$buf18 DFFSR
XDFFSR_102 gnd vdd asr1.rom[11][5] vdd _0__bF$buf6 asr1.rom[12][5] clk2.clkout_bF$buf0 DFFSR
XDFFSR_103 gnd vdd asr1.rom[11][6] vdd _0__bF$buf4 asr1.rom[12][6] clk2.clkout_bF$buf37 DFFSR
XDFFSR_104 gnd vdd asr1.rom[11][7] vdd _0__bF$buf10 asr1.rom[12][7] clk2.clkout_bF$buf35 DFFSR
XDFFSR_105 gnd vdd asr1.rom[12][0] vdd _0__bF$buf2 asr1.rom[13][0] clk2.clkout_bF$buf16 DFFSR
XDFFSR_106 gnd vdd asr1.rom[12][1] vdd _0__bF$buf2 asr1.rom[13][1] clk2.clkout_bF$buf15 DFFSR
XDFFSR_107 gnd vdd asr1.rom[12][2] vdd _0__bF$buf3 asr1.rom[13][2] clk2.clkout_bF$buf16 DFFSR
XDFFSR_108 gnd vdd asr1.rom[12][3] vdd _0__bF$buf7 asr1.rom[13][3] clk2.clkout_bF$buf9 DFFSR
XDFFSR_109 gnd vdd asr1.rom[12][4] vdd _0__bF$buf0 asr1.rom[13][4] clk2.clkout_bF$buf18 DFFSR
XDFFSR_110 gnd vdd asr1.rom[12][5] vdd _0__bF$buf10 asr1.rom[13][5] clk2.clkout_bF$buf0 DFFSR